REMARK  Name = 3fy1
REMARK  21 active torsions:
REMARK  status: ('A' for Active; 'I' for Inactive)
REMARK    1  A    between atoms: C1_1  and  O4_71
REMARK    2  A    between atoms: C2_2  and  N2_9
REMARK    3  A    between atoms: C3_3  and  O3_10
REMARK    4  A    between atoms: C4_4  and  O4_11
REMARK    5  A    between atoms: C5_5  and  C6_6
REMARK    6  A    between atoms: C6_6  and  O6_13
REMARK    7  A    between atoms: C7_7  and  C8_8
REMARK    8  A    between atoms: O4_11  and  C1_28
REMARK    9  A    between atoms: C2_29  and  N2_36
REMARK   10  A    between atoms: C3_30  and  O3_37
REMARK   11  A    between atoms: C4_31  and  O4_38
REMARK   12  A    between atoms: C5_32  and  C6_33
REMARK   13  A    between atoms: C6_33  and  O6_40
REMARK   14  A    between atoms: C7_34  and  C8_35
REMARK   15  A    between atoms: O6_40  and  C9_41
REMARK   16  A    between atoms: C3_61  and  O3_70
REMARK   17  A    between atoms: C4_62  and  O4_71
REMARK   18  A    between atoms: C5_63  and  C6_64
REMARK   19  A    between atoms: C6_64  and  O6_72
REMARK   20  A    between atoms: C8_66  and  N7_69
REMARK   21  A    between atoms: C9_67  and  N7_69
REMARK                            x       y       z     vdW  Elec       q    Type
REMARK                         _______ _______ _______ _____ _____    ______ ____
ROOT
ATOM      1  C   UNL     1      -0.098  49.559  66.550  0.00  0.00    +0.273 C 
ATOM      2  O   UNL     1       0.986  48.974  65.818  0.00  0.00    -0.342 OA
ATOM      3  C   UNL     1       0.792  48.932  64.406  0.00  0.00    +0.178 C 
ATOM      4  C   UNL     1       0.713  50.421  63.923  0.00  0.00    +0.183 C 
ATOM      5  C   UNL     1      -0.539  51.151  64.613  0.00  0.00    +0.171 C 
ATOM      6  C   UNL     1      -0.356  51.042  66.149  0.00  0.00    +0.161 C 
ENDROOT
BRANCH   6   7
ATOM      7  N   UNL     1      -1.576  51.405  66.923  0.00  0.00    -0.305 N 
ATOM      8  H   UNL     1      -2.446  50.932  66.723  0.00  0.00    +0.150 HD
ATOM      9  C   UNL     1      -1.547  52.328  67.861  0.00  0.00    +0.209 C 
ATOM     10  O   UNL     1      -0.520  52.952  68.138  0.00  0.00    -0.278 OA
ATOM     11  C   UNL     1      -2.855  52.594  68.595  0.00  0.00    +0.111 C 
ENDBRANCH   6   7
BRANCH   5  12
ATOM     12  O   UNL     1      -1.765  50.536  64.217  0.00  0.00    -0.388 OA
ATOM     13  H   UNL     1      -1.868  50.609  63.265  0.00  0.00    +0.211 HD
ENDBRANCH   5  12
BRANCH   4  14
ATOM     14  O   UNL     1       0.670  50.431  62.509  0.00  0.00    -0.342 OA
BRANCH  14  15
ATOM     15  C   UNL     1       1.238  51.565  61.891  0.00  0.00    +0.274 C 
ATOM     16  O   UNL     1       0.078  52.423  61.705  0.00  0.00    -0.342 OA
ATOM     17  C   UNL     1       0.392  53.648  60.961  0.00  0.00    +0.178 C 
ATOM     18  C   UNL     1       0.727  53.133  59.494  0.00  0.00    +0.176 C 
ATOM     19  C   UNL     1       2.020  52.286  59.538  0.00  0.00    +0.171 C 
ATOM     20  C   UNL     1       1.833  51.134  60.521  0.00  0.00    +0.161 C 
BRANCH  20  21
ATOM     21  N   UNL     1       3.089  50.441  60.782  0.00  0.00    -0.305 N 
ATOM     22  H   UNL     1       3.868  51.013  61.075  0.00  0.00    +0.150 HD
ATOM     23  C   UNL     1       3.315  49.150  60.676  0.00  0.00    +0.209 C 
ATOM     24  O   UNL     1       2.486  48.332  60.346  0.00  0.00    -0.278 OA
ATOM     25  C   UNL     1       4.750  48.766  61.030  0.00  0.00    +0.111 C 
ENDBRANCH  20  21
BRANCH  19  26
ATOM     26  O   UNL     1       3.114  53.077  59.967  0.00  0.00    -0.388 OA
ATOM     27  H   UNL     1       3.242  53.806  59.355  0.00  0.00    +0.211 HD
ENDBRANCH  19  26
BRANCH  18  28
ATOM     28  O   UNL     1       0.944  54.189  58.597  0.00  0.00    -0.388 OA
ATOM     29  H   UNL     1       0.156  54.735  58.548  0.00  0.00    +0.211 HD
ENDBRANCH  18  28
BRANCH  17  30
ATOM     30  C   UNL     1      -0.848  54.604  61.023  0.00  0.00    +0.194 C 
BRANCH  30  31
ATOM     31  O   UNL     1      -1.955  54.159  60.198  0.00  0.00    -0.382 OA
ATOM     32  C   UNL     1      -2.924  53.448  60.810  0.00  0.00    +0.195 C 
ENDBRANCH  30  31
ENDBRANCH  17  30
ENDBRANCH  14  15
ENDBRANCH   4  14
BRANCH   3  33
ATOM     33  C   UNL     1       1.976  48.172  63.822  0.00  0.00    +0.191 C 
BRANCH  33  34
ATOM     34  O   UNL     1       1.969  46.835  64.395  0.00  0.00    -0.394 OA
ATOM     35  H   UNL     1       2.236  46.199  63.727  0.00  0.00    +0.210 HD
ENDBRANCH  33  34
ENDBRANCH   3  33
BRANCH   1  36
ATOM     36  O   UNL     1       0.233  49.554  67.921  0.00  0.00    -0.344 OA
BRANCH  36  37
ATOM     37  C   UNL     1       0.203  48.310  68.598  0.00  0.00    +0.160 C 
ATOM     38  C   UNL     1       0.250  48.635  70.089  0.00  0.00    +0.078 C 
ATOM     39  C   UNL     1       0.613  47.311  70.770  0.00  0.00    +0.164 C 
ATOM     40  O   UNL     1       1.576  47.466  71.841  0.00  0.00    -0.311 OA
ATOM     41  C   UNL     1       2.715  46.776  71.492  0.00  0.00    +0.229 C 
ATOM     42  N   UNL     1       3.833  46.823  72.257  0.00  0.00    -0.302 N 
ATOM     43  C   UNL     1       3.761  47.314  73.657  0.00  0.00    +0.133 C 
ATOM     44  C   UNL     1       5.082  46.116  71.887  0.00  0.00    +0.133 C 
ATOM     45  N   UNL     1       2.651  46.243  70.267  0.00  0.00    -0.240 NA
ATOM     46  C   UNL     1       1.371  46.509  69.692  0.00  0.00    +0.171 C 
ATOM     47  C   UNL     1       1.492  47.473  68.512  0.00  0.00    +0.171 C 
BRANCH  47  48
ATOM     48  O   UNL     1       1.527  46.678  67.326  0.00  0.00    -0.388 OA
ATOM     49  H   UNL     1       1.299  47.222  66.569  0.00  0.00    +0.211 HD
ENDBRANCH  47  48
BRANCH  38  50
ATOM     50  C   UNL     1      -1.090  49.250  70.653  0.00  0.00    +0.165 C 
BRANCH  50  51
ATOM     51  O   UNL     1      -2.202  48.361  70.370  0.00  0.00    -0.396 OA
ATOM     52  H   UNL     1      -3.013  48.742  70.716  0.00  0.00    +0.210 HD
ENDBRANCH  50  51
ENDBRANCH  38  50
ENDBRANCH  36  37
ENDBRANCH   1  36
TORSDOF 16
