MODEL        1
REMARK  Name = ZINC82766023
REMARK  3 active torsions:
REMARK  status: ('A' for Active; 'I' for Inactive)
REMARK    1  A    between atoms: C_1  and  C_2
REMARK    2  A    between atoms: C_2  and  C_3
REMARK    3  A    between atoms: C_14  and  N_15
REMARK                            x       y       z     vdW  Elec       q    Type
REMARK                         _______ _______ _______ _____ _____    ______ ____
ROOT
ATOM      1  C   UNL     1       2.948   1.136   0.803  0.00  0.00    +0.000 A 
ATOM      2  C   UNL     1       2.720   2.490   0.587  0.00  0.00    +0.000 A 
ATOM      3  C   UNL     1       3.108   3.422   1.549  0.00  0.00    +0.000 A 
ATOM      4  C   UNL     1       3.739   3.019   2.740  0.00  0.00    +0.000 A 
ATOM      5  C   UNL     1       4.083   3.975   3.694  0.00  0.00    +0.000 A 
ATOM      6  C   UNL     1       4.675   3.550   4.863  0.00  0.00    +0.000 A 
ATOM      7  N   UNL     1       4.942   2.260   5.140  0.00  0.00    +0.000 NA
ATOM      8  C   UNL     1       4.614   1.311   4.226  0.00  0.00    +0.000 A 
ATOM      9  N   UNL     1       4.898   0.023   4.645  0.00  0.00    +0.000 N 
ATOM     10  C   UNL     1       5.365  -1.048   3.789  0.00  0.00    +0.000 C 
ATOM     11  C   UNL     1       6.422  -1.846   4.548  0.00  0.00    +0.000 C 
ATOM     12  C   UNL     1       5.947  -2.209   5.953  0.00  0.00    +0.000 C 
ATOM     13  C   UNL     1       5.373  -1.038   6.743  0.00  0.00    +0.000 C 
ATOM     14  C   UNL     1       4.298  -0.341   5.920  0.00  0.00    +0.000 C 
ATOM     15  C   UNL     1       3.999   1.651   2.988  0.00  0.00    +0.000 A 
ATOM     16  C   UNL     1       3.564   0.735   1.998  0.00  0.00    +0.000 A 
ENDROOT
BRANCH  12  17
ATOM     17  N   UNL     1       7.111  -2.757   6.714  0.00  0.00    +0.000 N 
ATOM     18  H   UNL     1       7.865  -2.058   6.778  0.00  0.00    +0.000 HD
ATOM     19  H   UNL     1       7.503  -3.594   6.265  0.00  0.00    +0.000 HD
ATOM     20  H   UNL     1       6.851  -3.011   7.676  0.00  0.00    +0.000 HD
ENDBRANCH  12  17
BRANCH   1  22
ATOM     21  C   UNL     1       1.128  -0.465   0.198  0.00  0.00    +0.000 C 
ATOM     22  C   UNL     1       2.492   0.092  -0.182  0.00  0.00    +0.000 C 
ENDBRANCH   1  22
TORSDOF 2
ENDMDL
MODEL        2
REMARK  Name = ZINC95915750
REMARK  3 active torsions:
REMARK  status: ('A' for Active; 'I' for Inactive)
REMARK    1  A    between atoms: C_1  and  C_2
REMARK    2  A    between atoms: C_2  and  N_3
REMARK    3  A    between atoms: N_6  and  C_7
REMARK                            x       y       z     vdW  Elec       q    Type
REMARK                         _______ _______ _______ _____ _____    ______ ____
ROOT
ATOM      1  N   UNL     1       3.080   0.460  -1.287  0.00  0.00    +0.000 NA
ATOM      2  C   UNL     1       4.528   0.130  -1.388  0.00  0.00    +0.000 C 
ATOM      3  C   UNL     1       5.441   0.868  -0.379  0.00  0.00    +0.000 C 
ATOM      4  N   UNL     1       5.197   2.318  -0.402  0.00  0.00    +0.000 N 
ATOM      5  C   UNL     1       3.787   2.737  -0.359  0.00  0.00    +0.000 C 
ATOM      6  C   UNL     1       2.958   1.934  -1.390  0.00  0.00    +0.000 C 
ENDROOT
BRANCH   4   7
ATOM      7  C   UNL     1       6.199   3.243  -0.611  0.00  0.00    +0.000 A 
ATOM      8  C   UNL     1       7.296   2.977  -1.441  0.00  0.00    +0.000 A 
ATOM      9  C   UNL     1       8.302   3.925  -1.660  0.00  0.00    +0.000 A 
ATOM     10  C   UNL     1       8.227   5.164  -1.039  0.00  0.00    +0.000 A 
ATOM     11 BR   UNL     1       9.581   6.450  -1.331  0.00  0.00    +0.000 Br
ATOM     12  C   UNL     1       7.157   5.463  -0.206  0.00  0.00    +0.000 A 
ATOM     13  C   UNL     1       6.156   4.507   0.001  0.00  0.00    +0.000 A 
ENDBRANCH   4   7
BRANCH   1  15
ATOM     14  C   UNL     1       1.015   0.155   0.108  0.00  0.00    +0.000 C 
ATOM     15  C   UNL     1       2.513  -0.086  -0.043  0.00  0.00    +0.000 C 
ENDBRANCH   1  15
TORSDOF 2
ENDMDL
MODEL        3
REMARK  Name = ZINC23253598
REMARK  3 active torsions:
REMARK  status: ('A' for Active; 'I' for Inactive)
REMARK    1  A    between atoms: C_1  and  N_2
REMARK    2  A    between atoms: N_5  and  C_6
REMARK    3  A    between atoms: C_6  and  C_7
REMARK                            x       y       z     vdW  Elec       q    Type
REMARK                         _______ _______ _______ _____ _____    ______ ____
ROOT
ATOM      1  C   UNL     1      -2.033  -0.136   1.650  0.00  0.00    +0.000 C 
ENDROOT
BRANCH   1   6
ATOM      2  C   UNL     1       2.489   0.069   0.076  0.00  0.00    +0.000 C 
ATOM      3  N   UNL     1       1.096   0.095  -0.356  0.00  0.00    +0.000 NA
ATOM      4  C   UNL     1       0.407  -1.156   0.003  0.00  0.00    +0.000 C 
ATOM      5  C   UNL     1      -1.082  -1.117  -0.408  0.00  0.00    +0.000 C 
ATOM      6  N   UNL     1      -1.853  -0.005   0.192  0.00  0.00    +0.000 NA
ATOM      7  C   UNL     1      -1.137   1.255  -0.130  0.00  0.00    +0.000 C 
ATOM      8  C   UNL     1       0.381   1.259   0.201  0.00  0.00    +0.000 C 
ENDBRANCH   1   6
BRANCH   1   9
ATOM      9  C   UNL     1      -2.753  -1.399   2.086  0.00  0.00    +0.000 A 
ATOM     10  C   UNL     1      -2.106  -2.329   2.917  0.00  0.00    +0.000 A 
ATOM     11  C   UNL     1      -2.755  -3.500   3.315  0.00  0.00    +0.000 A 
ATOM     12  C   UNL     1      -4.058  -3.744   2.888  0.00  0.00    +0.000 A 
ATOM     13 BR   UNL     1      -4.929  -5.341   3.408  0.00  0.00    +0.000 Br
ATOM     14  C   UNL     1      -4.721  -2.824   2.078  0.00  0.00    +0.000 A 
ATOM     15  C   UNL     1      -4.069  -1.656   1.678  0.00  0.00    +0.000 A 
ENDBRANCH   1   9
TORSDOF 2
ENDMDL
MODEL        4
REMARK  Name = ZINC20266675
REMARK  3 active torsions:
REMARK  status: ('A' for Active; 'I' for Inactive)
REMARK    1  A    between atoms: N_1  and  C_2
REMARK    2  A    between atoms: N_5  and  C_6
REMARK    3  A    between atoms: C_6  and  C_7
REMARK                            x       y       z     vdW  Elec       q    Type
REMARK                         _______ _______ _______ _____ _____    ______ ____
ROOT
ATOM      1  C   UNL     1       2.486  -0.185   0.003  0.00  0.00    +0.000 C 
ATOM      2  C   UNL     1       2.850  -1.411   0.836  0.00  0.00    +0.000 C 
ATOM      3  C   UNL     1       2.209  -1.371   2.215  0.00  0.00    +0.000 C 
ATOM      4  N   UNL     1       2.568  -0.097   2.947  0.00  0.00    +0.000 N 
ATOM      5  C   UNL     1       2.312   1.157   2.136  0.00  0.00    +0.000 C 
ATOM      6  C   UNL     1       2.936   1.067   0.752  0.00  0.00    +0.000 C 
ATOM      7  H   UNL     1       3.574  -0.129   3.163  0.00  0.00    +0.000 HD
ENDROOT
BRANCH   1   8
ATOM      8  N   UNL     1       1.044  -0.146  -0.238  0.00  0.00    +0.000 NA
ATOM      9  H   UNL     1       0.760  -0.963  -0.789  0.00  0.00    +0.000 HD
ATOM     10  H   UNL     1       0.813   0.646  -0.846  0.00  0.00    +0.000 HD
ENDBRANCH   1   8
BRANCH   4  11
ATOM     11  C   UNL     1       1.843   0.013   4.279  0.00  0.00    +0.000 C 
BRANCH  11  12
ATOM     12  C   UNL     1       2.094  -1.112   5.250  0.00  0.00    +0.000 A 
ATOM     13  C   UNL     1       1.014  -1.905   5.676  0.00  0.00    +0.000 A 
ATOM     14  C   UNL     1       1.203  -2.933   6.602  0.00  0.00    +0.000 A 
ATOM     15  C   UNL     1       2.477  -3.177   7.114  0.00  0.00    +0.000 A 
ATOM     16 CL   UNL     1       2.707  -4.439   8.258  0.00  0.00    +0.000 Cl
ATOM     17  C   UNL     1       3.561  -2.407   6.704  0.00  0.00    +0.000 A 
ATOM     18  C   UNL     1       3.368  -1.380   5.779  0.00  0.00    +0.000 A 
ATOM     19 CL   UNL     1       4.745  -0.458   5.287  0.00  0.00    +0.000 Cl
ENDBRANCH  11  12
ENDBRANCH   4  11
TORSDOF 3
ENDMDL
MODEL        5
REMARK  Name = ZINC82766137
REMARK  4 active torsions:
REMARK  status: ('A' for Active; 'I' for Inactive)
REMARK    1  A    between atoms: C_1  and  C_2
REMARK    2  A    between atoms: C_2  and  C_3
REMARK    3  A    between atoms: C_2  and  C_4
REMARK    4  A    between atoms: C_15  and  N_16
REMARK                            x       y       z     vdW  Elec       q    Type
REMARK                         _______ _______ _______ _____ _____    ______ ____
ROOT
ATOM      1  C   UNL     1       2.967  -0.737   1.097  0.00  0.00    +0.000 A 
ATOM      2  C   UNL     1       3.530  -0.341   2.310  0.00  0.00    +0.000 A 
ATOM      3  C   UNL     1       3.830  -1.293   3.293  0.00  0.00    +0.000 A 
ATOM      4  C   UNL     1       3.511  -2.653   3.113  0.00  0.00    +0.000 A 
ATOM      5  C   UNL     1       3.762  -3.602   4.104  0.00  0.00    +0.000 A 
ATOM      6  C   UNL     1       3.395  -4.915   3.869  0.00  0.00    +0.000 A 
ATOM      7  N   UNL     1       2.783  -5.347   2.742  0.00  0.00    +0.000 NA
ATOM      8  C   UNL     1       2.549  -4.440   1.763  0.00  0.00    +0.000 A 
ATOM      9  N   UNL     1       1.909  -4.893   0.598  0.00  0.00    +0.000 N 
ATOM     10  C   UNL     1       2.110  -6.292   0.235  0.00  0.00    +0.000 C 
ATOM     11  C   UNL     1       0.958  -7.162   0.731  0.00  0.00    +0.000 C 
ATOM     12  C   UNL     1      -0.381  -6.548   0.341  0.00  0.00    +0.000 C 
ATOM     13  C   UNL     1      -0.522  -5.106   0.793  0.00  0.00    +0.000 C 
ATOM     14  C   UNL     1       0.629  -4.281   0.250  0.00  0.00    +0.000 C 
ATOM     15  C   UNL     1       2.922  -3.074   1.903  0.00  0.00    +0.000 A 
ATOM     16  C   UNL     1       2.742  -2.103   0.894  0.00  0.00    +0.000 A 
ENDROOT
BRANCH  12  17
ATOM     17  N   UNL     1      -1.480  -7.338   0.971  0.00  0.00    +0.000 N 
ATOM     18  H   UNL     1      -1.400  -7.323   1.998  0.00  0.00    +0.000 HD
ATOM     19  H   UNL     1      -1.462  -8.322   0.674  0.00  0.00    +0.000 HD
ATOM     20  H   UNL     1      -2.406  -6.959   0.730  0.00  0.00    +0.000 HD
ENDBRANCH  12  17
BRANCH   1  22
ATOM     21  C   UNL     1       1.046   0.652   0.319  0.00  0.00    +0.000 C 
ATOM     22  C   UNL     1       2.488   0.223   0.023  0.00  0.00    +0.000 C 
ATOM     23  C   UNL     1       3.388   1.435  -0.192  0.00  0.00    +0.000 C 
ENDBRANCH   1  22
TORSDOF 2
ENDMDL
MODEL        6
REMARK  Name = ZINC71493215
REMARK  3 active torsions:
REMARK  status: ('A' for Active; 'I' for Inactive)
REMARK    1  A    between atoms: C_1  and  C_2
REMARK    2  A    between atoms: C_10  and  C_11
REMARK    3  A    between atoms: C_11  and  C_12
REMARK                            x       y       z     vdW  Elec       q    Type
REMARK                         _______ _______ _______ _____ _____    ______ ____
ROOT
ATOM      1  C   UNL     1      -1.459  -0.206   2.502  0.00  0.00    +0.000 C 
ATOM      2  C   UNL     1      -1.198  -0.124   1.042  0.00  0.00    +0.000 A 
ATOM      3  N   UNL     1      -0.715   1.032   0.480  0.00  0.00    +0.000 N 
ATOM      4  C   UNL     1      -0.531   0.881  -0.870  0.00  0.00    +0.000 A 
ATOM      5  C   UNL     1      -0.028   1.783  -1.816  0.00  0.00    +0.000 A 
ATOM      6  C   UNL     1       0.041   1.357  -3.145  0.00  0.00    +0.000 A 
ATOM      7  C   UNL     1      -0.379   0.080  -3.508  0.00  0.00    +0.000 A 
ATOM      8  C   UNL     1      -0.874  -0.810  -2.547  0.00  0.00    +0.000 A 
ATOM      9  C   UNL     1      -0.948  -0.408  -1.196  0.00  0.00    +0.000 A 
ATOM     10  C   UNL     1      -1.359  -1.054   0.021  0.00  0.00    +0.000 A 
ATOM     11  H   UNL     1      -0.506   1.881   0.989  0.00  0.00    +0.000 HD
ENDROOT
BRANCH  10  12
ATOM     12  C   UNL     1      -1.798  -2.489   0.143  0.00  0.00    +0.000 C 
BRANCH  12  13
ATOM     13  C   UNL     1      -3.299  -2.734  -0.016  0.00  0.00    +0.000 C 
ATOM     14  O   UNL     1      -4.117  -1.812  -0.049  0.00  0.00    +0.000 OA
ATOM     15  N   UNL     1      -3.713  -4.068  -0.100  0.00  0.00    +0.000 N 
ATOM     16  C   UNL     1      -2.851  -5.244   0.071  0.00  0.00    +0.000 C 
ATOM     17  C   UNL     1      -3.273  -6.400  -0.860  0.00  0.00    +0.000 C 
ATOM     18  N   UNL     1      -4.700  -6.751  -0.748  0.00  0.00    +0.000 NA
ATOM     19  C   UNL     1      -5.517  -5.546  -0.992  0.00  0.00    +0.000 C 
ATOM     20  C   UNL     1      -5.151  -4.363  -0.076  0.00  0.00    +0.000 C 
ATOM     21  H   UNL     1      -4.884  -7.079   0.200  0.00  0.00    +0.000 HD
ENDBRANCH  12  13
ENDBRANCH  10  12
TORSDOF 2
ENDMDL
MODEL        7
REMARK  Name = ZINC76309107
REMARK  4 active torsions:
REMARK  status: ('A' for Active; 'I' for Inactive)
REMARK    1  A    between atoms: C_1  and  C_2
REMARK    2  A    between atoms: C_10  and  C_11
REMARK    3  A    between atoms: C_11  and  N_12
REMARK    4  A    between atoms: C_16  and  C_17
REMARK                            x       y       z     vdW  Elec       q    Type
REMARK                         _______ _______ _______ _____ _____    ______ ____
ROOT
ATOM      1  C   UNL     1      -0.686  -0.687   2.500  0.00  0.00    +0.000 C 
ATOM      2  C   UNL     1      -0.718  -0.336   1.056  0.00  0.00    +0.000 A 
ATOM      3  N   UNL     1      -0.256   0.880   0.621  0.00  0.00    +0.000 N 
ATOM      4  C   UNL     1      -0.368   0.983  -0.742  0.00  0.00    +0.000 A 
ATOM      5  C   UNL     1      -0.034   2.043  -1.591  0.00  0.00    +0.000 A 
ATOM      6  C   UNL     1      -0.265   1.876  -2.958  0.00  0.00    +0.000 A 
ATOM      7  C   UNL     1      -0.797   0.690  -3.453  0.00  0.00    +0.000 A 
ATOM      8  C   UNL     1      -1.124  -0.360  -2.590  0.00  0.00    +0.000 A 
ATOM      9  C   UNL     1      -0.917  -0.213  -1.201  0.00  0.00    +0.000 A 
ATOM     10  C   UNL     1      -1.168  -1.044  -0.055  0.00  0.00    +0.000 A 
ATOM     11  H   UNL     1       0.120   1.607   1.216  0.00  0.00    +0.000 HD
ENDROOT
BRANCH  10  12
ATOM     12  C   UNL     1      -1.796  -2.411  -0.070  0.00  0.00    +0.000 C 
BRANCH  12  13
ATOM     13  N   UNL     1      -3.223  -2.298   0.217  0.00  0.00    +0.000 N 
ATOM     14  C   UNL     1      -4.095  -1.681  -0.780  0.00  0.00    +0.000 C 
ATOM     15  C   UNL     1      -5.433  -1.222  -0.185  0.00  0.00    +0.000 C 
ATOM     16  N   UNL     1      -6.103  -2.289   0.567  0.00  0.00    +0.000 NA
ATOM     17  C   UNL     1      -5.186  -2.815   1.608  0.00  0.00    +0.000 C 
ATOM     18  C   UNL     1      -5.889  -3.918   2.390  0.00  0.00    +0.000 C 
ATOM     19  C   UNL     1      -3.824  -3.272   1.022  0.00  0.00    +0.000 C 
ATOM     20  O   UNL     1      -3.272  -4.325   1.333  0.00  0.00    +0.000 OA
ATOM     21  H   UNL     1      -6.348  -3.052  -0.064  0.00  0.00    +0.000 HD
ENDBRANCH  12  13
ENDBRANCH  10  12
TORSDOF 2
ENDMDL
MODEL        8
REMARK  Name = ZINC76309109
REMARK  4 active torsions:
REMARK  status: ('A' for Active; 'I' for Inactive)
REMARK    1  A    between atoms: C_1  and  C_2
REMARK    2  A    between atoms: C_10  and  C_11
REMARK    3  A    between atoms: C_11  and  N_12
REMARK    4  A    between atoms: C_16  and  C_17
REMARK                            x       y       z     vdW  Elec       q    Type
REMARK                         _______ _______ _______ _____ _____    ______ ____
ROOT
ATOM      1  C   UNL     1      -0.686  -0.687   2.500  0.00  0.00    +0.000 C 
ATOM      2  C   UNL     1      -0.718  -0.336   1.056  0.00  0.00    +0.000 A 
ATOM      3  N   UNL     1      -0.256   0.880   0.621  0.00  0.00    +0.000 N 
ATOM      4  C   UNL     1      -0.368   0.983  -0.742  0.00  0.00    +0.000 A 
ATOM      5  C   UNL     1      -0.034   2.043  -1.591  0.00  0.00    +0.000 A 
ATOM      6  C   UNL     1      -0.265   1.876  -2.958  0.00  0.00    +0.000 A 
ATOM      7  C   UNL     1      -0.797   0.690  -3.453  0.00  0.00    +0.000 A 
ATOM      8  C   UNL     1      -1.124  -0.360  -2.590  0.00  0.00    +0.000 A 
ATOM      9  C   UNL     1      -0.917  -0.213  -1.201  0.00  0.00    +0.000 A 
ATOM     10  C   UNL     1      -1.168  -1.044  -0.055  0.00  0.00    +0.000 A 
ATOM     11  H   UNL     1       0.120   1.607   1.216  0.00  0.00    +0.000 HD
ENDROOT
BRANCH  10  12
ATOM     12  C   UNL     1      -1.796  -2.411  -0.070  0.00  0.00    +0.000 C 
BRANCH  12  13
ATOM     13  N   UNL     1      -3.223  -2.298   0.217  0.00  0.00    +0.000 N 
ATOM     14  C   UNL     1      -4.095  -1.681  -0.780  0.00  0.00    +0.000 C 
ATOM     15  C   UNL     1      -5.433  -1.222  -0.185  0.00  0.00    +0.000 C 
ATOM     16  N   UNL     1      -6.103  -2.289   0.567  0.00  0.00    +0.000 NA
ATOM     17  C   UNL     1      -5.186  -2.815   1.608  0.00  0.00    +0.000 C 
ATOM     18  C   UNL     1      -5.889  -3.918   2.390  0.00  0.00    +0.000 C 
ATOM     19  C   UNL     1      -3.824  -3.272   1.022  0.00  0.00    +0.000 C 
ATOM     20  O   UNL     1      -3.272  -4.325   1.333  0.00  0.00    +0.000 OA
ATOM     21  H   UNL     1      -6.348  -3.052  -0.064  0.00  0.00    +0.000 HD
ENDBRANCH  12  13
ENDBRANCH  10  12
TORSDOF 2
ENDMDL
MODEL        9
REMARK  Name = ZINC96958123
REMARK  3 active torsions:
REMARK  status: ('A' for Active; 'I' for Inactive)
REMARK    1  A    between atoms: N_1  and  N_2
REMARK    2  A    between atoms: C_6  and  C_7
REMARK    3  A    between atoms: C_7  and  C_8
REMARK                            x       y       z     vdW  Elec       q    Type
REMARK                         _______ _______ _______ _____ _____    ______ ____
ROOT
ATOM      1  N   UNL     1       2.671   0.060  -0.088  0.00  0.00    +0.000 NA
ATOM      2  C   UNL     1       3.030  -1.198   0.569  0.00  0.00    +0.000 C 
ATOM      3  C   UNL     1       4.203  -0.810   1.466  0.00  0.00    +0.000 C 
ATOM      4  C   UNL     1       4.306   0.708   1.349  0.00  0.00    +0.000 C 
ATOM      5  C   UNL     1       2.919   1.150   0.874  0.00  0.00    +0.000 C 
ENDROOT
BRANCH   1   6
ATOM      6  N   UNL     1       1.384   0.031  -0.693  0.00  0.00    +0.000 NA
ATOM      7  H   UNL     1       0.675  -0.476  -0.164  0.00  0.00    +0.000 HD
ATOM      8  H   UNL     1       1.022   0.960  -0.907  0.00  0.00    +0.000 HD
ENDBRANCH   1   6
BRANCH   5   9
ATOM      9  C   UNL     1       1.910   1.295   2.046  0.00  0.00    +0.000 C 
BRANCH   9  10
ATOM     10  C   UNL     1       2.328   2.338   3.064  0.00  0.00    +0.000 A 
ATOM     11  C   UNL     1       2.491   3.680   2.694  0.00  0.00    +0.000 A 
ATOM     12  C   UNL     1       2.949   4.620   3.625  0.00  0.00    +0.000 A 
ATOM     13  C   UNL     1       3.242   4.229   4.923  0.00  0.00    +0.000 A 
ATOM     14 BR   UNL     1       3.905   5.498   6.158  0.00  0.00    +0.000 Br
ATOM     15  C   UNL     1       3.053   2.909   5.318  0.00  0.00    +0.000 A 
ATOM     16  C   UNL     1       2.595   1.965   4.393  0.00  0.00    +0.000 A 
ENDBRANCH   9  10
ENDBRANCH   5   9
TORSDOF 3
ENDMDL
MODEL       10
REMARK  Name = ZINC82752718
REMARK  2 active torsions:
REMARK  status: ('A' for Active; 'I' for Inactive)
REMARK    1  A    between atoms: C_5  and  C_6
REMARK    2  A    between atoms: C_9  and  C_10
REMARK                            x       y       z     vdW  Elec       q    Type
REMARK                         _______ _______ _______ _____ _____    ______ ____
ROOT
ATOM      1  C   UNL     1       2.560  -2.010   0.186  0.00  0.00    +0.000 A 
ATOM      2  N   UNL     1       3.424  -2.118   1.201  0.00  0.00    +0.000 NA
ATOM      3  N   UNL     1       4.363  -2.945   0.717  0.00  0.00    +0.000 N 
ATOM      4  C   UNL     1       4.026  -3.373  -0.537  0.00  0.00    +0.000 A 
ATOM      5  N   UNL     1       2.914  -2.774  -0.902  0.00  0.00    +0.000 NA
ATOM      6  H   UNL     1       5.160  -3.184   1.297  0.00  0.00    +0.000 HD
ENDROOT
BRANCH   1  11
ATOM      7 CL   UNL     1      -2.669   0.890  -0.092  0.00  0.00    +0.000 Cl
ATOM      8  C   UNL     1      -1.165   0.064   0.019  0.00  0.00    +0.000 A 
ATOM      9  C   UNL     1      -0.986  -1.128  -0.673  0.00  0.00    +0.000 A 
ATOM     10  C   UNL     1       0.240  -1.789  -0.587  0.00  0.00    +0.000 A 
ATOM     11  C   UNL     1       1.304  -1.268   0.183  0.00  0.00    +0.000 A 
ATOM     12  C   UNL     1       1.101  -0.060   0.867  0.00  0.00    +0.000 A 
ATOM     13 CL   UNL     1       2.337   0.734   1.781  0.00  0.00    +0.000 Cl
ATOM     14  C   UNL     1      -0.134   0.598   0.786  0.00  0.00    +0.000 A 
ENDBRANCH   1  11
BRANCH   4  15
ATOM     15  C   UNL     1       4.745  -4.404  -1.340  0.00  0.00    +0.000 C 
ATOM     16  C   UNL     1       5.262  -3.819  -2.662  0.00  0.00    +0.000 C 
ATOM     17  C   UNL     1       4.137  -3.382  -3.593  0.00  0.00    +0.000 C 
ATOM     18  N   UNL     1       3.160  -4.493  -3.800  0.00  0.00    +0.000 N 
ATOM     19  C   UNL     1       2.647  -5.175  -2.575  0.00  0.00    +0.000 C 
ATOM     20  C   UNL     1       3.796  -5.574  -1.653  0.00  0.00    +0.000 C 
ATOM     21  H   UNL     1       3.563  -5.193  -4.439  0.00  0.00    +0.000 HD
ATOM     22  H   UNL     1       2.351  -4.100  -4.299  0.00  0.00    +0.000 HD
ENDBRANCH   4  15
TORSDOF 2
ENDMDL
MODEL       11
REMARK  Name = ZINC82752752
REMARK  2 active torsions:
REMARK  status: ('A' for Active; 'I' for Inactive)
REMARK    1  A    between atoms: C_5  and  C_6
REMARK    2  A    between atoms: C_9  and  C_10
REMARK                            x       y       z     vdW  Elec       q    Type
REMARK                         _______ _______ _______ _____ _____    ______ ____
ROOT
ATOM      1  C   UNL     1       3.910   0.047   0.046  0.00  0.00    +0.000 A 
ATOM      2  N   UNL     1       4.680  -0.537  -0.885  0.00  0.00    +0.000 NA
ATOM      3  N   UNL     1       5.917  -0.294  -0.452  0.00  0.00    +0.000 N 
ATOM      4  C   UNL     1       5.894   0.403   0.720  0.00  0.00    +0.000 A 
ATOM      5  N   UNL     1       4.643   0.653   1.054  0.00  0.00    +0.000 NA
ATOM      6  H   UNL     1       6.700  -0.661  -0.987  0.00  0.00    +0.000 HD
ENDROOT
BRANCH   4   7
ATOM      7  C   UNL     1       7.108   0.756   1.505  0.00  0.00    +0.000 C 
ATOM      8  C   UNL     1       7.821  -0.504   2.008  0.00  0.00    +0.000 C 
ATOM      9  C   UNL     1       8.950  -0.187   2.983  0.00  0.00    +0.000 C 
ATOM     10  C   UNL     1       8.450   0.669   4.141  0.00  0.00    +0.000 C 
ATOM     11  C   UNL     1       7.792   1.942   3.635  0.00  0.00    +0.000 C 
ATOM     12  N   UNL     1       6.701   1.585   2.693  0.00  0.00    +0.000 N 
ATOM     13  H   UNL     1       6.232   2.431   2.338  0.00  0.00    +0.000 HD
ATOM     14  H   UNL     1       5.940   1.079   3.172  0.00  0.00    +0.000 HD
ENDBRANCH   4   7
BRANCH   1  19
ATOM     15 CL   UNL     1      -2.074  -0.052  -0.098  0.00  0.00    +0.000 Cl
ATOM     16  C   UNL     1      -0.355  -0.024  -0.056  0.00  0.00    +0.000 A 
ATOM     17  C   UNL     1       0.372  -0.718  -1.019  0.00  0.00    +0.000 A 
ATOM     18  C   UNL     1       1.769  -0.690  -0.981  0.00  0.00    +0.000 A 
ATOM     19  C   UNL     1       2.450   0.027   0.015  0.00  0.00    +0.000 A 
ATOM     20  C   UNL     1       1.702   0.719   0.979  0.00  0.00    +0.000 A 
ATOM     21  C   UNL     1       0.303   0.694   0.942  0.00  0.00    +0.000 A 
ENDBRANCH   1  19
TORSDOF 2
ENDMDL
MODEL       12
REMARK  Name = ZINC82752753
REMARK  2 active torsions:
REMARK  status: ('A' for Active; 'I' for Inactive)
REMARK    1  A    between atoms: C_5  and  C_6
REMARK    2  A    between atoms: C_9  and  C_10
REMARK                            x       y       z     vdW  Elec       q    Type
REMARK                         _______ _______ _______ _____ _____    ______ ____
ROOT
ATOM      1  C   UNL     1       3.910   0.047   0.046  0.00  0.00    +0.000 A 
ATOM      2  N   UNL     1       4.680  -0.537  -0.885  0.00  0.00    +0.000 NA
ATOM      3  N   UNL     1       5.917  -0.294  -0.452  0.00  0.00    +0.000 N 
ATOM      4  C   UNL     1       5.894   0.403   0.720  0.00  0.00    +0.000 A 
ATOM      5  N   UNL     1       4.643   0.653   1.054  0.00  0.00    +0.000 NA
ATOM      6  H   UNL     1       6.700  -0.661  -0.987  0.00  0.00    +0.000 HD
ENDROOT
BRANCH   4   7
ATOM      7  C   UNL     1       7.108   0.756   1.505  0.00  0.00    +0.000 C 
ATOM      8  C   UNL     1       7.821  -0.504   2.008  0.00  0.00    +0.000 C 
ATOM      9  C   UNL     1       8.950  -0.187   2.983  0.00  0.00    +0.000 C 
ATOM     10  C   UNL     1       8.450   0.669   4.141  0.00  0.00    +0.000 C 
ATOM     11  C   UNL     1       7.792   1.942   3.635  0.00  0.00    +0.000 C 
ATOM     12  N   UNL     1       6.701   1.585   2.693  0.00  0.00    +0.000 N 
ATOM     13  H   UNL     1       6.232   2.431   2.338  0.00  0.00    +0.000 HD
ATOM     14  H   UNL     1       5.940   1.079   3.172  0.00  0.00    +0.000 HD
ENDBRANCH   4   7
BRANCH   1  19
ATOM     15 CL   UNL     1      -2.074  -0.052  -0.098  0.00  0.00    +0.000 Cl
ATOM     16  C   UNL     1      -0.355  -0.024  -0.056  0.00  0.00    +0.000 A 
ATOM     17  C   UNL     1       0.372  -0.718  -1.019  0.00  0.00    +0.000 A 
ATOM     18  C   UNL     1       1.769  -0.690  -0.981  0.00  0.00    +0.000 A 
ATOM     19  C   UNL     1       2.450   0.027   0.015  0.00  0.00    +0.000 A 
ATOM     20  C   UNL     1       1.702   0.719   0.979  0.00  0.00    +0.000 A 
ATOM     21  C   UNL     1       0.303   0.694   0.942  0.00  0.00    +0.000 A 
ENDBRANCH   1  19
TORSDOF 2
ENDMDL
MODEL       13
REMARK  Name = ZINC96958124
REMARK  3 active torsions:
REMARK  status: ('A' for Active; 'I' for Inactive)
REMARK    1  A    between atoms: N_1  and  N_2
REMARK    2  A    between atoms: C_6  and  C_7
REMARK    3  A    between atoms: C_7  and  C_8
REMARK                            x       y       z     vdW  Elec       q    Type
REMARK                         _______ _______ _______ _____ _____    ______ ____
ROOT
ATOM      1  N   UNL     1       2.814   0.047  -0.124  0.00  0.00    +0.000 NA
ATOM      2  C   UNL     1       3.157  -1.207   0.546  0.00  0.00    +0.000 C 
ATOM      3  C   UNL     1       4.339  -0.810   1.429  0.00  0.00    +0.000 C 
ATOM      4  C   UNL     1       4.442   0.709   1.296  0.00  0.00    +0.000 C 
ATOM      5  C   UNL     1       3.047   1.145   0.832  0.00  0.00    +0.000 C 
ENDROOT
BRANCH   1   6
ATOM      6  N   UNL     1       1.570   0.023  -0.798  0.00  0.00    +0.000 NA
ATOM      7  H   UNL     1       0.872  -0.610  -0.413  0.00  0.00    +0.000 HD
ATOM      8  H   UNL     1       1.152   0.943  -0.935  0.00  0.00    +0.000 HD
ENDBRANCH   1   6
BRANCH   5   9
ATOM      9  C   UNL     1       2.056   1.287   2.021  0.00  0.00    +0.000 C 
BRANCH   9  10
ATOM     10  C   UNL     1       2.483   2.344   3.031  0.00  0.00    +0.000 A 
ATOM     11  C   UNL     1       2.653   3.681   2.647  0.00  0.00    +0.000 A 
ATOM     12  C   UNL     1       3.141   4.629   3.553  0.00  0.00    +0.000 A 
ATOM     13  C   UNL     1       3.442   4.249   4.857  0.00  0.00    +0.000 A 
ATOM     14 BR   UNL     1       4.152   5.513   6.069  0.00  0.00    +0.000 Br
ATOM     15  C   UNL     1       3.242   2.932   5.272  0.00  0.00    +0.000 A 
ATOM     16  C   UNL     1       2.762   1.985   4.356  0.00  0.00    +0.000 A 
ENDBRANCH   9  10
ENDBRANCH   5   9
TORSDOF 3
ENDMDL
MODEL       14
REMARK  Name = ZINC75567398
REMARK  1 active torsions:
REMARK  status: ('A' for Active; 'I' for Inactive)
REMARK    1  A    between atoms: C_1  and  N_2
REMARK                            x       y       z     vdW  Elec       q    Type
REMARK                         _______ _______ _______ _____ _____    ______ ____
ROOT
ATOM      1  C   UNL     1       0.983  -0.021  -0.082  0.00  0.00    +0.000 C 
ATOM      2  N   UNL     1       2.476   0.004  -0.021  0.00  0.00    +0.000 N 
ATOM      3  C   UNL     1       3.057  -1.153   0.791  0.00  0.00    +0.000 C 
ATOM      4  C   UNL     1       4.590  -1.232   0.613  0.00  0.00    +0.000 C 
ATOM      5  C   UNL     1       5.191   0.133   0.748  0.00  0.00    +0.000 A 
ATOM      6  C   UNL     1       4.463   1.306   0.685  0.00  0.00    +0.000 A 
ATOM      7  C   UNL     1       5.360   2.379   0.888  0.00  0.00    +0.000 A 
ATOM      8  C   UNL     1       5.201   3.782   0.910  0.00  0.00    +0.000 A 
ATOM      9  C   UNL     1       6.314   4.608   1.080  0.00  0.00    +0.000 A 
ATOM     10  C   UNL     1       7.580   4.059   1.208  0.00  0.00    +0.000 A 
ATOM     11  C   UNL     1       7.764   2.675   1.187  0.00  0.00    +0.000 A 
ATOM     12  C   UNL     1       6.639   1.829   1.068  0.00  0.00    +0.000 A 
ATOM     13  N   UNL     1       6.520   0.431   1.016  0.00  0.00    +0.000 N 
ATOM     14  C   UNL     1       7.575  -0.531   1.150  0.00  0.00    +0.000 A 
ATOM     15  C   UNL     1       8.666  -0.262   1.973  0.00  0.00    +0.000 A 
ATOM     16  C   UNL     1       9.728  -1.163   2.002  0.00  0.00    +0.000 A 
ATOM     17  C   UNL     1       9.667  -2.311   1.226  0.00  0.00    +0.000 A 
ATOM     18  C   UNL     1       8.522  -2.534   0.480  0.00  0.00    +0.000 A 
ATOM     19  N   UNL     1       7.466  -1.687   0.442  0.00  0.00    +0.000 NA
ATOM     20  C   UNL     1       2.996   1.351   0.460  0.00  0.00    +0.000 C 
ATOM     21  H   UNL     1       2.839  -0.103  -0.976  0.00  0.00    +0.000 HD
ENDROOT
TORSDOF 0
ENDMDL
MODEL       15
REMARK  Name = ZINC00184014
REMARK  2 active torsions:
REMARK  status: ('A' for Active; 'I' for Inactive)
REMARK    1  A    between atoms: N_10  and  C_11
REMARK    2  A    between atoms: C_11  and  C_12
REMARK                            x       y       z     vdW  Elec       q    Type
REMARK                         _______ _______ _______ _____ _____    ______ ____
ROOT
ATOM      1  N   UNL     1       1.110  -0.299  -0.236  0.00  0.00    +0.000 N 
ATOM      2  C   UNL     1       2.420  -0.161  -0.061  0.00  0.00    +0.000 A 
ATOM      3  N   UNL     1       3.254  -1.178   0.023  0.00  0.00    +0.000 N 
ATOM      4  C   UNL     1       4.552  -0.725   0.072  0.00  0.00    +0.000 A 
ATOM      5  C   UNL     1       5.760  -1.409   0.099  0.00  0.00    +0.000 A 
ATOM      6  C   UNL     1       6.910  -0.605   0.108  0.00  0.00    +0.000 A 
ATOM      7  C   UNL     1       6.832   0.803   0.098  0.00  0.00    +0.000 A 
ATOM      8  C   UNL     1       5.601   1.477   0.085  0.00  0.00    +0.000 A 
ATOM      9  C   UNL     1       4.467   0.670   0.070  0.00  0.00    +0.000 A 
ATOM     10  N   UNL     1       3.098   0.972   0.028  0.00  0.00    +0.000 N 
ATOM     11  H   UNL     1       0.692  -1.218  -0.291  0.00  0.00    +0.000 HD
ATOM     12  H   UNL     1       0.513   0.499  -0.400  0.00  0.00    +0.000 HD
ATOM     13  H   UNL     1       2.993  -2.154   0.009  0.00  0.00    +0.000 HD
ENDROOT
BRANCH  10  14
ATOM     14  C   UNL     1       2.532   2.312   0.119  0.00  0.00    +0.000 C 
BRANCH  14  15
ATOM     15  C   UNL     1       2.518   3.014  -1.219  0.00  0.00    +0.000 A 
ATOM     16  C   UNL     1       2.859   2.386  -2.428  0.00  0.00    +0.000 A 
ATOM     17  C   UNL     1       2.910   3.108  -3.622  0.00  0.00    +0.000 A 
ATOM     18  C   UNL     1       2.603   4.465  -3.627  0.00  0.00    +0.000 A 
ATOM     19 CL   UNL     1       2.723   5.364  -5.086  0.00  0.00    +0.000 Cl
ATOM     20  C   UNL     1       2.215   5.099  -2.449  0.00  0.00    +0.000 A 
ATOM     21  C   UNL     1       2.169   4.376  -1.254  0.00  0.00    +0.000 A 
ENDBRANCH  14  15
ENDBRANCH  10  14
TORSDOF 2
ENDMDL
MODEL       16
REMARK  Name = ZINC82752840
REMARK  2 active torsions:
REMARK  status: ('A' for Active; 'I' for Inactive)
REMARK    1  A    between atoms: C_5  and  C_6
REMARK    2  A    between atoms: C_9  and  C_10
REMARK                            x       y       z     vdW  Elec       q    Type
REMARK                         _______ _______ _______ _____ _____    ______ ____
ROOT
ATOM      1  C   UNL     1       3.892   0.036  -0.050  0.00  0.00    +0.000 A 
ATOM      2  N   UNL     1       4.657  -0.742  -0.830  0.00  0.00    +0.000 NA
ATOM      3  N   UNL     1       5.893  -0.463  -0.407  0.00  0.00    +0.000 N 
ATOM      4  C   UNL     1       5.859   0.421   0.635  0.00  0.00    +0.000 A 
ATOM      5  N   UNL     1       4.618   0.810   0.834  0.00  0.00    +0.000 NA
ATOM      6  H   UNL     1       6.681  -0.930  -0.847  0.00  0.00    +0.000 HD
ENDROOT
BRANCH   4   7
ATOM      7  C   UNL     1       7.042   0.818   1.460  0.00  0.00    +0.000 C 
ATOM      8  C   UNL     1       7.205  -0.124   2.670  0.00  0.00    +0.000 C 
ATOM      9  C   UNL     1       6.089   0.025   3.714  0.00  0.00    +0.000 C 
ATOM     10  C   UNL     1       5.858   1.475   4.121  0.00  0.00    +0.000 C 
ATOM     11  N   UNL     1       5.690   2.314   2.904  0.00  0.00    +0.000 N 
ATOM     12  C   UNL     1       6.854   2.260   1.956  0.00  0.00    +0.000 C 
ATOM     13  H   UNL     1       5.475   3.287   3.157  0.00  0.00    +0.000 HD
ATOM     14  H   UNL     1       4.864   1.968   2.373  0.00  0.00    +0.000 HD
ENDBRANCH   4   7
BRANCH   1  19
ATOM     15 CL   UNL     1      -2.078   0.052  -0.146  0.00  0.00    +0.000 Cl
ATOM     16  C   UNL     1      -0.360   0.045  -0.112  0.00  0.00    +0.000 A 
ATOM     17  C   UNL     1       0.344  -0.839  -0.932  0.00  0.00    +0.000 A 
ATOM     18  C   UNL     1       1.736  -0.844  -0.909  0.00  0.00    +0.000 A 
ATOM     19  C   UNL     1       2.439   0.033  -0.071  0.00  0.00    +0.000 A 
ATOM     20  C   UNL     1       1.717   0.906   0.761  0.00  0.00    +0.000 A 
ATOM     21  C   UNL     1       0.322   0.915   0.734  0.00  0.00    +0.000 A 
ENDBRANCH   1  19
TORSDOF 2
ENDMDL
MODEL       17
REMARK  Name = ZINC75973400
REMARK  5 active torsions:
REMARK  status: ('A' for Active; 'I' for Inactive)
REMARK    1  A    between atoms: C_1  and  C_2
REMARK    2  A    between atoms: N_10  and  C_11
REMARK    3  A    between atoms: C_14  and  N_15
REMARK    4  A    between atoms: N_15  and  C_16
REMARK    5  A    between atoms: N_15  and  C_17
REMARK                            x       y       z     vdW  Elec       q    Type
REMARK                         _______ _______ _______ _____ _____    ______ ____
ROOT
ATOM      1  C   UNL     1       1.196   0.035  -1.018  0.00  0.00    +0.000 C 
ATOM      2  C   UNL     1       2.590  -0.077  -0.497  0.00  0.00    +0.000 A 
ATOM      3  N   UNL     1       3.383   0.993  -0.332  0.00  0.00    +0.000 N 
ATOM      4  C   UNL     1       4.583   0.652   0.228  0.00  0.00    +0.000 A 
ATOM      5  C   UNL     1       5.675   1.442   0.567  0.00  0.00    +0.000 A 
ATOM      6  C   UNL     1       6.775   0.765   1.105  0.00  0.00    +0.000 A 
ATOM      7  C   UNL     1       6.766  -0.632   1.269  0.00  0.00    +0.000 A 
ATOM      8  C   UNL     1       5.660  -1.415   0.907  0.00  0.00    +0.000 A 
ATOM      9  C   UNL     1       4.548  -0.733   0.407  0.00  0.00    +0.000 A 
ATOM     10  N   UNL     1       3.276  -1.163  -0.047  0.00  0.00    +0.000 N 
ATOM     11  H   UNL     1       3.113   1.939  -0.581  0.00  0.00    +0.000 HD
ENDROOT
BRANCH  10  12
ATOM     12  C   UNL     1       2.780  -2.546  -0.051  0.00  0.00    +0.000 A 
ATOM     13  C   UNL     1       3.136  -3.406   0.977  0.00  0.00    +0.000 A 
ATOM     14  C   UNL     1       2.761  -4.755   0.912  0.00  0.00    +0.000 A 
ATOM     15  C   UNL     1       2.000  -5.271  -0.149  0.00  0.00    +0.000 A 
ATOM     16  C   UNL     1       1.612  -4.351  -1.136  0.00  0.00    +0.000 A 
ATOM     17  C   UNL     1       2.007  -3.006  -1.105  0.00  0.00    +0.000 A 
BRANCH  15  18
ATOM     18  N   UNL     1       1.677  -6.610  -0.239  0.00  0.00    +0.000 N 
ATOM     19  C   UNL     1       0.454  -7.079  -0.887  0.00  0.00    +0.000 C 
ATOM     20  C   UNL     1       2.470  -7.655   0.406  0.00  0.00    +0.000 C 
ENDBRANCH  15  18
ENDBRANCH  10  12
TORSDOF 2
ENDMDL
MODEL       18
REMARK  Name = ZINC71584834
REMARK  3 active torsions:
REMARK  status: ('A' for Active; 'I' for Inactive)
REMARK    1  A    between atoms: C_1  and  C_2
REMARK    2  A    between atoms: C_5  and  C_6
REMARK    3  A    between atoms: N_9  and  C_10
REMARK                            x       y       z     vdW  Elec       q    Type
REMARK                         _______ _______ _______ _____ _____    ______ ____
ROOT
ATOM      1  C   UNL     1      -3.124   0.086  -0.130  0.00  0.00    +0.000 C 
ATOM      2  C   UNL     1      -3.726   0.855  -1.324  0.00  0.00    +0.000 C 
ATOM      3  C   UNL     1      -3.577   2.380  -1.192  0.00  0.00    +0.000 C 
ATOM      4  N   UNL     1      -4.160   2.847   0.069  0.00  0.00    +0.000 NA
ATOM      5  C   UNL     1      -3.548   2.188   1.232  0.00  0.00    +0.000 C 
ATOM      6  C   UNL     1      -3.740   0.673   1.152  0.00  0.00    +0.000 C 
ENDROOT
BRANCH   4   7
ATOM      7  C   UNL     1      -4.303   4.290   0.243  0.00  0.00    +0.000 C 
ATOM      8  C   UNL     1      -3.069   5.182   0.018  0.00  0.00    +0.000 C 
ATOM      9  C   UNL     1      -3.408   6.617   0.420  0.00  0.00    +0.000 C 
ATOM     10  N   UNL     1      -4.624   7.096  -0.311  0.00  0.00    +0.000 N 
ATOM     11  C   UNL     1      -5.820   6.207  -0.205  0.00  0.00    +0.000 C 
ATOM     12  C   UNL     1      -5.447   4.804  -0.641  0.00  0.00    +0.000 C 
ATOM     13  H   UNL     1      -4.397   7.238  -1.303  0.00  0.00    +0.000 HD
ATOM     14  H   UNL     1      -4.883   8.027   0.047  0.00  0.00    +0.000 HD
ENDBRANCH   4   7
BRANCH   1  19
ATOM     15  C   UNL     1       2.718  -0.333   0.157  0.00  0.00    +0.000 C 
ATOM     16  C   UNL     1       1.228  -0.205   0.081  0.00  0.00    +0.000 A 
ATOM     17  C   UNL     1       0.621   0.425  -1.004  0.00  0.00    +0.000 A 
ATOM     18  C   UNL     1      -0.771   0.520  -1.083  0.00  0.00    +0.000 A 
ATOM     19  C   UNL     1      -1.598   0.011  -0.073  0.00  0.00    +0.000 A 
ATOM     20  C   UNL     1      -0.975  -0.645   1.002  0.00  0.00    +0.000 A 
ATOM     21  C   UNL     1       0.420  -0.746   1.083  0.00  0.00    +0.000 A 
ENDBRANCH   1  19
TORSDOF 2
ENDMDL
MODEL       19
REMARK  Name = ZINC15636911
REMARK  5 active torsions:
REMARK  status: ('A' for Active; 'I' for Inactive)
REMARK    1  A    between atoms: C_1  and  C_2
REMARK    2  A    between atoms: C_5  and  N_6
REMARK    3  A    between atoms: C_7  and  C_12
REMARK    4  A    between atoms: N_8  and  C_9
REMARK    5  A    between atoms: C_9  and  N_10
REMARK                            x       y       z     vdW  Elec       q    Type
REMARK                         _______ _______ _______ _____ _____    ______ ____
ROOT
ATOM      1  N   UNL     1      -3.208   0.258  -0.169  0.00  0.00    +0.000 NA
ATOM      2  C   UNL     1      -3.941   1.327  -0.240  0.00  0.00    +0.000 C 
ATOM      3  N   UNL     1      -3.525   2.665  -0.267  0.00  0.00    +0.000 N 
ATOM      4  H   UNL     1      -4.154   3.304   0.209  0.00  0.00    +0.000 HD
ENDROOT
BRANCH   1   9
ATOM      5  C   UNL     1       2.510  -0.136  -0.084  0.00  0.00    +0.000 C 
ATOM      6  C   UNL     1       1.014  -0.048  -0.021  0.00  0.00    +0.000 A 
ATOM      7  C   UNL     1       0.378   0.997   0.654  0.00  0.00    +0.000 A 
ATOM      8  C   UNL     1      -1.022   1.073   0.687  0.00  0.00    +0.000 A 
ATOM      9  C   UNL     1      -1.815   0.175  -0.032  0.00  0.00    +0.000 A 
ATOM     10  C   UNL     1      -1.172  -0.915  -0.627  0.00  0.00    +0.000 A 
ATOM     11  C   UNL     1       0.223  -1.035  -0.615  0.00  0.00    +0.000 A 
ENDBRANCH   1   9
BRANCH   2  12
ATOM     12  C   UNL     1      -5.435   1.183  -0.243  0.00  0.00    +0.000 A 
ATOM     13  C   UNL     1      -6.041   0.087   0.380  0.00  0.00    +0.000 A 
ATOM     14  C   UNL     1      -7.435  -0.019   0.415  0.00  0.00    +0.000 A 
ATOM     15  C   UNL     1      -8.230   0.960  -0.183  0.00  0.00    +0.000 A 
ATOM     16  C   UNL     1      -7.635   2.032  -0.842  0.00  0.00    +0.000 A 
ATOM     17  C   UNL     1      -6.243   2.141  -0.882  0.00  0.00    +0.000 A 
ENDBRANCH   2  12
BRANCH   3  18
ATOM     18  C   UNL     1      -2.465   3.335  -0.819  0.00  0.00    +0.000 C 
ATOM     19  S   UNL     1      -2.102   4.884  -0.337  0.00  0.00    +0.000 S 
BRANCH  18  20
ATOM     20  N   UNL     1      -1.796   2.742  -1.827  0.00  0.00    +0.000 N 
ATOM     21  H   UNL     1      -1.934   1.761  -2.032  0.00  0.00    +0.000 HD
ATOM     22  H   UNL     1      -0.937   3.167  -2.157  0.00  0.00    +0.000 HD
ENDBRANCH  18  20
ENDBRANCH   3  18
TORSDOF 4
ENDMDL
MODEL       20
REMARK  Name = ZINC70451801
REMARK  4 active torsions:
REMARK  status: ('A' for Active; 'I' for Inactive)
REMARK    1  A    between atoms: C_1  and  C_2
REMARK    2  A    between atoms: C_5  and  C_6
REMARK    3  A    between atoms: C_12  and  N_13
REMARK    4  A    between atoms: C_17  and  C_18
REMARK                            x       y       z     vdW  Elec       q    Type
REMARK                         _______ _______ _______ _____ _____    ______ ____
ROOT
ATOM      1  C   UNL     1      -3.368   0.034  -0.147  0.00  0.00    +0.000 A 
ATOM      2  N   UNL     1      -3.998   0.636  -1.190  0.00  0.00    +0.000 NA
ATOM      3  C   UNL     1      -5.344   0.660  -1.187  0.00  0.00    +0.000 A 
ATOM      4  N   UNL     1      -6.009   1.320  -2.205  0.00  0.00    +0.000 N 
ATOM      5  C   UNL     1      -5.302   2.337  -2.986  0.00  0.00    +0.000 C 
ATOM      6  C   UNL     1      -4.886   1.762  -4.337  0.00  0.00    +0.000 C 
ATOM      7  C   UNL     1      -6.076   1.110  -5.041  0.00  0.00    +0.000 C 
ATOM      8  C   UNL     1      -6.828   0.117  -4.156  0.00  0.00    +0.000 C 
ATOM      9  C   UNL     1      -7.210   0.762  -2.824  0.00  0.00    +0.000 C 
ATOM     10  C   UNL     1      -6.048   0.068  -0.143  0.00  0.00    +0.000 A 
ATOM     11  C   UNL     1      -5.353  -0.533   0.906  0.00  0.00    +0.000 A 
ATOM     12  C   UNL     1      -6.037  -1.173   2.069  0.00  0.00    +0.000 C 
ATOM     13  N   UNL     1      -4.013  -0.522   0.883  0.00  0.00    +0.000 N 
ATOM     14  H   UNL     1      -3.483  -0.899   1.664  0.00  0.00    +0.000 HD
ENDROOT
BRANCH   1  19
ATOM     15  C   UNL     1       2.443  -0.050   0.014  0.00  0.00    +0.000 C 
ATOM     16  C   UNL     1       0.941  -0.018  -0.020  0.00  0.00    +0.000 A 
ATOM     17  C   UNL     1       0.255   1.021  -0.650  0.00  0.00    +0.000 A 
ATOM     18  C   UNL     1      -1.144   1.025  -0.690  0.00  0.00    +0.000 A 
ATOM     19  C   UNL     1      -1.901  -0.004  -0.100  0.00  0.00    +0.000 A 
ATOM     20  C   UNL     1      -1.189  -1.052   0.520  0.00  0.00    +0.000 A 
ATOM     21  C   UNL     1       0.210  -1.052   0.567  0.00  0.00    +0.000 A 
ENDBRANCH   1  19
BRANCH   7  22
ATOM     22  N   UNL     1      -5.578   0.390  -6.257  0.00  0.00    +0.000 N 
ATOM     23  H   UNL     1      -4.887  -0.338  -6.026  0.00  0.00    +0.000 HD
ATOM     24  H   UNL     1      -5.125   1.036  -6.919  0.00  0.00    +0.000 HD
ATOM     25  H   UNL     1      -6.342  -0.068  -6.773  0.00  0.00    +0.000 HD
ENDBRANCH   7  22
TORSDOF 2
ENDMDL
MODEL       21
REMARK  Name = ZINC16082910
REMARK  3 active torsions:
REMARK  status: ('A' for Active; 'I' for Inactive)
REMARK    1  A    between atoms: N_1  and  C_2
REMARK    2  A    between atoms: N_5  and  C_6
REMARK    3  A    between atoms: C_6  and  C_7
REMARK                            x       y       z     vdW  Elec       q    Type
REMARK                         _______ _______ _______ _____ _____    ______ ____
ROOT
ATOM      1  C   UNL     1       2.320   0.082  -0.116  0.00  0.00    +0.000 C 
ATOM      2  C   UNL     1       2.948   1.161   0.790  0.00  0.00    +0.000 C 
ATOM      3  O   UNL     1       2.725   2.357   0.669  0.00  0.00    +0.000 OA
ATOM      4  N   UNL     1       3.656   0.507   1.794  0.00  0.00    +0.000 N 
ATOM      5  C   UNL     1       3.574  -0.887   1.635  0.00  0.00    +0.000 A 
ATOM      6  C   UNL     1       4.120  -1.887   2.414  0.00  0.00    +0.000 A 
ATOM      7  C   UNL     1       3.862  -3.213   2.048  0.00  0.00    +0.000 A 
ATOM      8  C   UNL     1       3.084  -3.515   0.918  0.00  0.00    +0.000 A 
ATOM      9  C   UNL     1       2.540  -2.497   0.137  0.00  0.00    +0.000 A 
ATOM     10  C   UNL     1       2.788  -1.188   0.516  0.00  0.00    +0.000 A 
ENDROOT
BRANCH   1  11
ATOM     11  N   UNL     1       0.837   0.223  -0.113  0.00  0.00    +0.000 N 
ATOM     12  H   UNL     1       0.586   1.174  -0.421  0.00  0.00    +0.000 HD
ATOM     13  H   UNL     1       0.474   0.111   0.842  0.00  0.00    +0.000 HD
ATOM     14  H   UNL     1       0.379  -0.462  -0.721  0.00  0.00    +0.000 HD
ENDBRANCH   1  11
BRANCH   4  15
ATOM     15  C   UNL     1       4.370   1.195   2.857  0.00  0.00    +0.000 C 
BRANCH  15  16
ATOM     16  C   UNL     1       5.831   1.393   2.535  0.00  0.00    +0.000 A 
ATOM     17  C   UNL     1       6.226   2.186   1.444  0.00  0.00    +0.000 A 
ATOM     18  C   UNL     1       7.577   2.320   1.112  0.00  0.00    +0.000 A 
ATOM     19  C   UNL     1       8.545   1.677   1.879  0.00  0.00    +0.000 A 
ATOM     20 CL   UNL     1      10.203   1.798   1.439  0.00  0.00    +0.000 Cl
ATOM     21  C   UNL     1       8.176   0.930   2.994  0.00  0.00    +0.000 A 
ATOM     22  C   UNL     1       6.823   0.790   3.323  0.00  0.00    +0.000 A 
ENDBRANCH  15  16
ENDBRANCH   4  15
TORSDOF 3
ENDMDL
MODEL       22
REMARK  Name = ZINC21987165
REMARK  2 active torsions:
REMARK  status: ('A' for Active; 'I' for Inactive)
REMARK    1  A    between atoms: C_1  and  N_2
REMARK    2  A    between atoms: N_5  and  C_6
REMARK                            x       y       z     vdW  Elec       q    Type
REMARK                         _______ _______ _______ _____ _____    ______ ____
ROOT
ATOM      1  C   UNL     1       2.454   0.016   0.067  0.00  0.00    +0.000 C 
ATOM      2  N   UNL     1       1.049   0.003  -0.334  0.00  0.00    +0.000 NA
ATOM      3  C   UNL     1       0.371  -1.205   0.196  0.00  0.00    +0.000 C 
ATOM      4  C   UNL     1      -1.140  -1.241  -0.137  0.00  0.00    +0.000 C 
ATOM      5  N   UNL     1      -1.762  -0.016   0.384  0.00  0.00    +0.000 N 
ATOM      6  C   UNL     1      -1.155   1.216  -0.150  0.00  0.00    +0.000 C 
ATOM      7  C   UNL     1       0.358   1.215   0.169  0.00  0.00    +0.000 C 
ENDROOT
BRANCH   5   8
ATOM      8  C   UNL     1      -3.074   0.016   0.807  0.00  0.00    +0.000 A 
ATOM      9  C   UNL     1      -3.464   0.958   1.774  0.00  0.00    +0.000 A 
ATOM     10  C   UNL     1      -4.765   1.014   2.272  0.00  0.00    +0.000 A 
ATOM     11  C   UNL     1      -5.712   0.113   1.802  0.00  0.00    +0.000 A 
ATOM     12 BR   UNL     1      -7.484   0.192   2.455  0.00  0.00    +0.000 Br
ATOM     13  C   UNL     1      -5.360  -0.844   0.855  0.00  0.00    +0.000 A 
ATOM     14  C   UNL     1      -4.049  -0.893   0.370  0.00  0.00    +0.000 A 
ENDBRANCH   5   8
TORSDOF 1
ENDMDL
MODEL       23
REMARK  Name = ZINC71601416
REMARK  3 active torsions:
REMARK  status: ('A' for Active; 'I' for Inactive)
REMARK    1  A    between atoms: N_1  and  N_2
REMARK    2  A    between atoms: N_5  and  C_6
REMARK    3  A    between atoms: C_6  and  C_7
REMARK                            x       y       z     vdW  Elec       q    Type
REMARK                         _______ _______ _______ _____ _____    ______ ____
ROOT
ATOM      1  N   UNL     1       2.351  -0.017   0.030  0.00  0.00    +0.000 NA
ATOM      2  C   UNL     1       2.762   1.000  -0.968  0.00  0.00    +0.000 C 
ATOM      3  C   UNL     1       2.502   0.572  -2.424  0.00  0.00    +0.000 C 
ATOM      4  N   UNL     1       3.110  -0.721  -2.776  0.00  0.00    +0.000 NA
ATOM      5  C   UNL     1       2.690  -1.754  -1.813  0.00  0.00    +0.000 C 
ATOM      6  C   UNL     1       2.878  -1.356  -0.331  0.00  0.00    +0.000 C 
ENDROOT
BRANCH   1   7
ATOM      7  N   UNL     1       0.937  -0.034   0.203  0.00  0.00    +0.000 N 
ATOM      8  H   UNL     1       0.588   0.892   0.504  0.00  0.00    +0.000 HD
ATOM      9  H   UNL     1       0.661  -0.687   0.955  0.00  0.00    +0.000 HD
ATOM     10  H   UNL     1       0.417  -0.300  -0.649  0.00  0.00    +0.000 HD
ENDBRANCH   1   7
BRANCH   4  11
ATOM     11  C   UNL     1       4.587  -0.671  -2.890  0.00  0.00    +0.000 C 
BRANCH  11  12
ATOM     12  C   UNL     1       5.085   0.337  -3.902  0.00  0.00    +0.000 A 
ATOM     13  C   UNL     1       5.879   1.423  -3.502  0.00  0.00    +0.000 A 
ATOM     14  C   UNL     1       6.272   2.394  -4.428  0.00  0.00    +0.000 A 
ATOM     15  C   UNL     1       5.885   2.275  -5.760  0.00  0.00    +0.000 A 
ATOM     16 BR   UNL     1       6.361   3.620  -6.999  0.00  0.00    +0.000 Br
ATOM     17  C   UNL     1       5.136   1.180  -6.182  0.00  0.00    +0.000 A 
ATOM     18  C   UNL     1       4.739   0.215  -5.257  0.00  0.00    +0.000 A 
ENDBRANCH  11  12
ENDBRANCH   4  11
TORSDOF 3
ENDMDL
MODEL       24
REMARK  Name = ZINC82807662
REMARK  3 active torsions:
REMARK  status: ('A' for Active; 'I' for Inactive)
REMARK    1  A    between atoms: C_1  and  N_2
REMARK    2  A    between atoms: C_8  and  C_9
REMARK    3  A    between atoms: C_9  and  C_10
REMARK                            x       y       z     vdW  Elec       q    Type
REMARK                         _______ _______ _______ _____ _____    ______ ____
ROOT
ATOM      1  C   UNL     1       0.703  -0.100  -0.155  0.00  0.00    +0.000 C 
ATOM      2  N   UNL     1       2.205  -0.093  -0.101  0.00  0.00    +0.000 N 
ATOM      3  C   UNL     1       2.779  -1.400   0.466  0.00  0.00    +0.000 C 
ATOM      4  C   UNL     1       3.615  -1.361   1.764  0.00  0.00    +0.000 C 
ATOM      5  C   UNL     1       3.977   0.002   2.172  0.00  0.00    +0.000 A 
ATOM      6  N   UNL     1       4.768   0.347   3.233  0.00  0.00    +0.000 N 
ATOM      7  N   UNL     1       4.920   1.676   3.345  0.00  0.00    +0.000 NA
ATOM      8  C   UNL     1       4.174   2.197   2.359  0.00  0.00    +0.000 A 
ATOM      9  C   UNL     1       3.584   1.169   1.582  0.00  0.00    +0.000 A 
ATOM     10  C   UNL     1       2.730   1.249   0.395  0.00  0.00    +0.000 C 
ATOM     11  H   UNL     1       2.494  -0.110  -1.085  0.00  0.00    +0.000 HD
ATOM     12  H   UNL     1       5.239  -0.249   3.909  0.00  0.00    +0.000 HD
ENDROOT
BRANCH   8  13
ATOM     13  C   UNL     1       4.083   3.682   2.168  0.00  0.00    +0.000 C 
BRANCH  13  14
ATOM     14  C   UNL     1       2.824   4.140   2.873  0.00  0.00    +0.000 A 
ATOM     15  C   UNL     1       2.710   4.040   4.271  0.00  0.00    +0.000 A 
ATOM     16  C   UNL     1       1.557   4.474   4.930  0.00  0.00    +0.000 A 
ATOM     17  C   UNL     1       0.512   5.028   4.198  0.00  0.00    +0.000 A 
ATOM     18 CL   UNL     1      -0.916   5.547   5.002  0.00  0.00    +0.000 Cl
ATOM     19  C   UNL     1       0.617   5.166   2.815  0.00  0.00    +0.000 A 
ATOM     20  C   UNL     1       1.770   4.727   2.154  0.00  0.00    +0.000 A 
ENDBRANCH  13  14
ENDBRANCH   8  13
TORSDOF 2
ENDMDL
MODEL       25
REMARK  Name = ZINC52537216
REMARK  4 active torsions:
REMARK  status: ('A' for Active; 'I' for Inactive)
REMARK    1  A    between atoms: C_1  and  N_2
REMARK    2  A    between atoms: N_2  and  C_3
REMARK    3  A    between atoms: N_2  and  C_4
REMARK    4  A    between atoms: N_7  and  C_8
REMARK                            x       y       z     vdW  Elec       q    Type
REMARK                         _______ _______ _______ _____ _____    ______ ____
ROOT
ATOM      1  C   UNL     1       3.278  -1.109   0.342  0.00  0.00    +0.000 C 
ATOM      2  C   UNL     1       4.752  -1.000  -0.065  0.00  0.00    +0.000 C 
ATOM      3  C   UNL     1       4.726  -1.333  -1.549  0.00  0.00    +0.000 C 
ATOM      4  N   UNL     1       3.791  -2.462  -1.628  0.00  0.00    +0.000 N 
ATOM      5  C   UNL     1       2.899  -2.417  -0.446  0.00  0.00    +0.000 C 
ENDROOT
BRANCH   4   6
ATOM      6  C   UNL     1       4.204  -3.654  -2.210  0.00  0.00    +0.000 A 
ATOM      7  C   UNL     1       3.690  -4.904  -1.835  0.00  0.00    +0.000 A 
ATOM      8  C   UNL     1       4.183  -6.106  -2.373  0.00  0.00    +0.000 A 
ATOM      9  C   UNL     1       5.187  -6.075  -3.330  0.00  0.00    +0.000 A 
ATOM     10 BR   UNL     1       5.898  -7.684  -4.016  0.00  0.00    +0.000 Br
ATOM     11  C   UNL     1       5.667  -4.856  -3.785  0.00  0.00    +0.000 A 
ATOM     12  C   UNL     1       5.162  -3.668  -3.241  0.00  0.00    +0.000 A 
ENDBRANCH   4   6
BRANCH   1  14
ATOM     13  C   UNL     1       1.077  -0.044   0.357  0.00  0.00    +0.000 C 
ATOM     14  N   UNL     1       2.497   0.115   0.018  0.00  0.00    +0.000 NA
ATOM     15  C   UNL     1       3.000   1.292   0.744  0.00  0.00    +0.000 C 
ENDBRANCH   1  14
TORSDOF 2
ENDMDL
MODEL       26
REMARK  Name = ZINC52537218
REMARK  4 active torsions:
REMARK  status: ('A' for Active; 'I' for Inactive)
REMARK    1  A    between atoms: C_1  and  N_2
REMARK    2  A    between atoms: N_2  and  C_3
REMARK    3  A    between atoms: N_2  and  C_4
REMARK    4  A    between atoms: N_7  and  C_8
REMARK                            x       y       z     vdW  Elec       q    Type
REMARK                         _______ _______ _______ _____ _____    ______ ____
ROOT
ATOM      1  C   UNL     1       3.005  -0.861   1.163  0.00  0.00    +0.000 C 
ATOM      2  C   UNL     1       4.513  -0.703   1.399  0.00  0.00    +0.000 C 
ATOM      3  C   UNL     1       5.145  -1.674   0.411  0.00  0.00    +0.000 C 
ATOM      4  N   UNL     1       4.249  -2.828   0.460  0.00  0.00    +0.000 N 
ATOM      5  C   UNL     1       2.924  -2.410   0.946  0.00  0.00    +0.000 C 
ENDROOT
BRANCH   4   6
ATOM      6  C   UNL     1       4.717  -4.125   0.538  0.00  0.00    +0.000 A 
ATOM      7  C   UNL     1       3.951  -5.169   1.083  0.00  0.00    +0.000 A 
ATOM      8  C   UNL     1       4.450  -6.473   1.213  0.00  0.00    +0.000 A 
ATOM      9  C   UNL     1       5.730  -6.768   0.765  0.00  0.00    +0.000 A 
ATOM     10 BR   UNL     1       6.418  -8.517   0.958  0.00  0.00    +0.000 Br
ATOM     11  C   UNL     1       6.500  -5.778   0.173  0.00  0.00    +0.000 A 
ATOM     12  C   UNL     1       5.991  -4.477   0.058  0.00  0.00    +0.000 A 
ENDBRANCH   4   6
BRANCH   1  14
ATOM     13  C   UNL     1       1.014  -0.228  -0.093  0.00  0.00    +0.000 C 
ATOM     14  N   UNL     1       2.464  -0.033   0.049  0.00  0.00    +0.000 NA
ATOM     15  C   UNL     1       2.707   1.400   0.265  0.00  0.00    +0.000 C 
ENDBRANCH   1  14
TORSDOF 2
ENDMDL
MODEL       27
REMARK  Name = ZINC54257519
REMARK  2 active torsions:
REMARK  status: ('A' for Active; 'I' for Inactive)
REMARK    1  A    between atoms: N_5  and  C_6
REMARK    2  A    between atoms: C_6  and  C_7
REMARK                            x       y       z     vdW  Elec       q    Type
REMARK                         _______ _______ _______ _____ _____    ______ ____
ROOT
ATOM      1  C   UNL     1       2.220   0.554  -1.501  0.00  0.00    +0.000 C 
ENDROOT
BRANCH   1   2
ATOM      2  C   UNL     1       3.434  -0.277  -1.895  0.00  0.00    +0.000 A 
ATOM      3  C   UNL     1       3.791  -1.389  -1.108  0.00  0.00    +0.000 A 
ATOM      4  C   UNL     1       4.928  -2.135  -1.391  0.00  0.00    +0.000 A 
ATOM      5  C   UNL     1       5.705  -1.815  -2.498  0.00  0.00    +0.000 A 
ATOM      6  C   UNL     1       5.335  -0.775  -3.361  0.00  0.00    +0.000 A 
ATOM      7  C   UNL     1       6.102  -0.525  -4.511  0.00  0.00    +0.000 A 
ATOM      8  C   UNL     1       5.744   0.475  -5.411  0.00  0.00    +0.000 A 
ATOM      9  C   UNL     1       4.619   1.247  -5.165  0.00  0.00    +0.000 A 
ATOM     10  C   UNL     1       3.855   1.021  -4.015  0.00  0.00    +0.000 A 
ATOM     11  C   UNL     1       4.185   0.008  -3.079  0.00  0.00    +0.000 A 
ENDBRANCH   1   2
BRANCH   1  16
ATOM     12  O   UNL     1       2.877   4.587   1.753  0.00  0.00    +0.000 OA
ATOM     13  C   UNL     1       2.461   3.674   1.038  0.00  0.00    +0.000 C 
ATOM     14  C   UNL     1       3.389   2.637   0.468  0.00  0.00    +0.000 C 
ATOM     15  C   UNL     1       2.961   1.208   0.784  0.00  0.00    +0.000 C 
ATOM     16  N   UNL     1       1.907   0.612  -0.055  0.00  0.00    +0.000 NA
ATOM     17  C   UNL     1       0.600   1.245   0.198  0.00  0.00    +0.000 C 
ATOM     18  C   UNL     1       0.468   2.730  -0.183  0.00  0.00    +0.000 C 
ATOM     19  N   UNL     1       1.138   3.633   0.729  0.00  0.00    +0.000 N 
ATOM     20  H   UNL     1       0.616   4.413   1.109  0.00  0.00    +0.000 HD
ENDBRANCH   1  16
TORSDOF 2
ENDMDL
MODEL       28
REMARK  Name = ZINC19537095
REMARK  3 active torsions:
REMARK  status: ('A' for Active; 'I' for Inactive)
REMARK    1  A    between atoms: C_1  and  N_2
REMARK    2  A    between atoms: N_5  and  C_6
REMARK    3  A    between atoms: C_6  and  C_7
REMARK                            x       y       z     vdW  Elec       q    Type
REMARK                         _______ _______ _______ _____ _____    ______ ____
ROOT
ATOM      1  C   UNL     1      -1.984  -0.126   1.664  0.00  0.00    +0.000 C 
ENDROOT
BRANCH   1   2
ATOM      2  C   UNL     1      -2.807   0.975   2.311  0.00  0.00    +0.000 A 
ATOM      3  C   UNL     1      -4.118   1.199   1.851  0.00  0.00    +0.000 A 
ATOM      4  C   UNL     1      -4.895   2.240   2.365  0.00  0.00    +0.000 A 
ATOM      5  C   UNL     1      -4.368   3.065   3.355  0.00  0.00    +0.000 A 
ATOM      6 CL   UNL     1      -5.305   4.373   3.966  0.00  0.00    +0.000 Cl
ATOM      7  C   UNL     1      -3.087   2.843   3.851  0.00  0.00    +0.000 A 
ATOM      8  C   UNL     1      -2.312   1.799   3.339  0.00  0.00    +0.000 A 
ATOM      9 CL   UNL     1      -0.737   1.592   4.023  0.00  0.00    +0.000 Cl
ENDBRANCH   1   2
BRANCH   1  14
ATOM     10  C   UNL     1       2.518   0.055   0.074  0.00  0.00    +0.000 C 
ATOM     11  N   UNL     1       1.126   0.089  -0.366  0.00  0.00    +0.000 NA
ATOM     12  C   UNL     1       0.423  -1.154  -0.007  0.00  0.00    +0.000 C 
ATOM     13  C   UNL     1      -1.080  -1.097  -0.379  0.00  0.00    +0.000 C 
ATOM     14  N   UNL     1      -1.819   0.046   0.206  0.00  0.00    +0.000 NA
ATOM     15  C   UNL     1      -1.080   1.280  -0.150  0.00  0.00    +0.000 C 
ATOM     16  C   UNL     1       0.429   1.263   0.191  0.00  0.00    +0.000 C 
ENDBRANCH   1  14
TORSDOF 2
ENDMDL
MODEL       29
REMARK  Name = ZINC19537095
REMARK  3 active torsions:
REMARK  status: ('A' for Active; 'I' for Inactive)
REMARK    1  A    between atoms: C_1  and  N_2
REMARK    2  A    between atoms: N_5  and  C_6
REMARK    3  A    between atoms: C_6  and  C_7
REMARK                            x       y       z     vdW  Elec       q    Type
REMARK                         _______ _______ _______ _____ _____    ______ ____
ROOT
ATOM      1  C   UNL     1       1.909   0.026   4.241  0.00  0.00    +0.000 C 
ENDROOT
BRANCH   1   6
ATOM      2  C   UNL     1       1.131  -0.130  -0.393  0.00  0.00    +0.000 C 
ATOM      3  N   UNL     1       2.553  -0.162  -0.039  0.00  0.00    +0.000 NA
ATOM      4  C   UNL     1       2.905  -1.353   0.748  0.00  0.00    +0.000 C 
ATOM      5  C   UNL     1       2.332  -1.367   2.177  0.00  0.00    +0.000 C 
ATOM      6  N   UNL     1       2.649  -0.078   2.923  0.00  0.00    +0.000 N 
ATOM      7  C   UNL     1       2.422   1.185   2.099  0.00  0.00    +0.000 C 
ATOM      8  C   UNL     1       2.980   1.052   0.672  0.00  0.00    +0.000 C 
ATOM      9  H   UNL     1       3.656  -0.105   3.142  0.00  0.00    +0.000 HD
ENDBRANCH   1   6
BRANCH   1  10
ATOM     10  C   UNL     1       2.161  -1.095   5.215  0.00  0.00    +0.000 A 
ATOM     11  C   UNL     1       1.084  -1.900   5.632  0.00  0.00    +0.000 A 
ATOM     12  C   UNL     1       1.279  -2.921   6.563  0.00  0.00    +0.000 A 
ATOM     13  C   UNL     1       2.547  -3.148   7.091  0.00  0.00    +0.000 A 
ATOM     14 CL   UNL     1       2.781  -4.399   8.243  0.00  0.00    +0.000 Cl
ATOM     15  C   UNL     1       3.629  -2.366   6.691  0.00  0.00    +0.000 A 
ATOM     16  C   UNL     1       3.431  -1.344   5.759  0.00  0.00    +0.000 A 
ATOM     17 CL   UNL     1       4.803  -0.406   5.280  0.00  0.00    +0.000 Cl
ENDBRANCH   1  10
TORSDOF 2
ENDMDL
