MODEL        1
REMARK  Name = ZINC71588959
REMARK  2 active torsions:
REMARK  status: ('A' for Active; 'I' for Inactive)
REMARK    1  A    between atoms: C_5  and  C_6
REMARK    2  A    between atoms: N_9  and  C_10
REMARK                            x       y       z     vdW  Elec       q    Type
REMARK                         _______ _______ _______ _____ _____    ______ ____
ROOT
ATOM      1  C   UNL     1      -3.261   0.047  -0.130  0.00  0.00    +0.000 C 
ATOM      2  C   UNL     1      -3.868   0.843  -1.303  0.00  0.00    +0.000 C 
ATOM      3  C   UNL     1      -3.707   2.368  -1.161  0.00  0.00    +0.000 C 
ATOM      4  N   UNL     1      -4.232   2.828   0.118  0.00  0.00    +0.000 NA
ATOM      5  C   UNL     1      -3.660   2.127   1.273  0.00  0.00    +0.000 C 
ATOM      6  C   UNL     1      -3.869   0.617   1.164  0.00  0.00    +0.000 C 
ENDROOT
BRANCH   4   7
ATOM      7  C   UNL     1      -4.374   4.260   0.353  0.00  0.00    +0.000 C 
ATOM      8  C   UNL     1      -3.688   5.273  -0.579  0.00  0.00    +0.000 C 
ATOM      9  C   UNL     1      -3.973   6.689  -0.077  0.00  0.00    +0.000 C 
ATOM     10  N   UNL     1      -5.450   6.912   0.035  0.00  0.00    +0.000 N 
ATOM     11  C   UNL     1      -6.180   5.903   0.857  0.00  0.00    +0.000 C 
ATOM     12  C   UNL     1      -5.886   4.516   0.332  0.00  0.00    +0.000 C 
ATOM     13  H   UNL     1      -5.863   6.941  -0.908  0.00  0.00    +0.000 HD
ATOM     14  H   UNL     1      -5.619   7.844   0.438  0.00  0.00    +0.000 HD
ENDBRANCH   4   7
BRANCH   1  19
ATOM     15  F   UNL     1       2.398  -0.338   0.174  0.00  0.00    +0.000 F 
ATOM     16  C   UNL     1       1.064  -0.252   0.094  0.00  0.00    +0.000 A 
ATOM     17  C   UNL     1       0.486   0.379  -0.997  0.00  0.00    +0.000 A 
ATOM     18  C   UNL     1      -0.905   0.476  -1.087  0.00  0.00    +0.000 A 
ATOM     19  C   UNL     1      -1.736  -0.034  -0.074  0.00  0.00    +0.000 A 
ATOM     20  C   UNL     1      -1.117  -0.698   1.004  0.00  0.00    +0.000 A 
ATOM     21  C   UNL     1       0.274  -0.799   1.094  0.00  0.00    +0.000 A 
ENDBRANCH   1  19
TORSDOF 2
ENDMDL
MODEL        2
REMARK  Name = ZINC82766023
REMARK  3 active torsions:
REMARK  status: ('A' for Active; 'I' for Inactive)
REMARK    1  A    between atoms: C_1  and  C_2
REMARK    2  A    between atoms: C_2  and  C_3
REMARK    3  A    between atoms: C_14  and  N_15
REMARK                            x       y       z     vdW  Elec       q    Type
REMARK                         _______ _______ _______ _____ _____    ______ ____
ROOT
ATOM      1  C   UNL     1       2.992  -1.278  -0.498  0.00  0.00    +0.000 A 
ATOM      2  C   UNL     1       4.184  -1.576  -1.154  0.00  0.00    +0.000 A 
ATOM      3  C   UNL     1       4.548  -2.910  -1.379  0.00  0.00    +0.000 A 
ATOM      4  C   UNL     1       3.753  -3.973  -0.907  0.00  0.00    +0.000 A 
ATOM      5  C   UNL     1       4.105  -5.304  -1.131  0.00  0.00    +0.000 A 
ATOM      6  C   UNL     1       3.285  -6.299  -0.630  0.00  0.00    +0.000 A 
ATOM      7  N   UNL     1       2.163  -6.072   0.090  0.00  0.00    +0.000 NA
ATOM      8  C   UNL     1       1.799  -4.789   0.302  0.00  0.00    +0.000 A 
ATOM      9  N   UNL     1       0.625  -4.555   1.035  0.00  0.00    +0.000 N 
ATOM     10  C   UNL     1      -0.426  -5.560   0.948  0.00  0.00    +0.000 C 
ATOM     11  C   UNL     1      -0.405  -6.488   2.158  0.00  0.00    +0.000 C 
ATOM     12  C   UNL     1      -0.336  -5.682   3.449  0.00  0.00    +0.000 C 
ATOM     13  C   UNL     1       0.821  -4.698   3.469  0.00  0.00    +0.000 C 
ATOM     14  C   UNL     1       0.735  -3.777   2.264  0.00  0.00    +0.000 C 
ATOM     15  C   UNL     1       2.562  -3.695  -0.206  0.00  0.00    +0.000 A 
ATOM     16  C   UNL     1       2.186  -2.338  -0.073  0.00  0.00    +0.000 A 
ENDROOT
BRANCH  12  17
ATOM     17  N   UNL     1      -0.162  -6.616   4.600  0.00  0.00    +0.000 N 
ATOM     18  H   UNL     1       0.706  -7.161   4.503  0.00  0.00    +0.000 HD
ATOM     19  H   UNL     1      -0.939  -7.287   4.667  0.00  0.00    +0.000 HD
ATOM     20  H   UNL     1      -0.110  -6.112   5.497  0.00  0.00    +0.000 HD
ENDBRANCH  12  17
BRANCH   1  22
ATOM     21  C   UNL     1       3.101   0.632   1.132  0.00  0.00    +0.000 C 
ATOM     22  C   UNL     1       2.560   0.135  -0.203  0.00  0.00    +0.000 C 
ENDBRANCH   1  22
TORSDOF 2
ENDMDL
MODEL        3
REMARK  Name = ZINC95915750
REMARK  3 active torsions:
REMARK  status: ('A' for Active; 'I' for Inactive)
REMARK    1  A    between atoms: C_1  and  C_2
REMARK    2  A    between atoms: C_2  and  N_3
REMARK    3  A    between atoms: N_6  and  C_7
REMARK                            x       y       z     vdW  Elec       q    Type
REMARK                         _______ _______ _______ _____ _____    ______ ____
ROOT
ATOM      1  N   UNL     1       3.067  -0.938  -1.000  0.00  0.00    +0.000 NA
ATOM      2  C   UNL     1       2.655  -2.351  -0.813  0.00  0.00    +0.000 C 
ATOM      3  C   UNL     1       3.126  -2.991   0.511  0.00  0.00    +0.000 C 
ATOM      4  N   UNL     1       4.579  -2.838   0.671  0.00  0.00    +0.000 N 
ATOM      5  C   UNL     1       5.120  -1.491   0.441  0.00  0.00    +0.000 C 
ATOM      6  C   UNL     1       4.547  -0.886  -0.868  0.00  0.00    +0.000 C 
ENDROOT
BRANCH   4   7
ATOM      7  C   UNL     1       5.411  -3.900   0.954  0.00  0.00    +0.000 A 
ATOM      8  C   UNL     1       5.179  -5.180   0.430  0.00  0.00    +0.000 A 
ATOM      9  C   UNL     1       6.044  -6.248   0.686  0.00  0.00    +0.000 A 
ATOM     10  C   UNL     1       7.164  -6.054   1.487  0.00  0.00    +0.000 A 
ATOM     11 BR   UNL     1       8.341  -7.492   1.825  0.00  0.00    +0.000 Br
ATOM     12  C   UNL     1       7.418  -4.804   2.034  0.00  0.00    +0.000 A 
ATOM     13  C   UNL     1       6.549  -3.741   1.764  0.00  0.00    +0.000 A 
ENDBRANCH   4   7
BRANCH   1  15
ATOM     14  C   UNL     1       0.917   0.036  -0.140  0.00  0.00    +0.000 C 
ATOM     15  C   UNL     1       2.438  -0.009  -0.047  0.00  0.00    +0.000 C 
ENDBRANCH   1  15
TORSDOF 2
ENDMDL
MODEL        4
REMARK  Name = ZINC23253598
REMARK  3 active torsions:
REMARK  status: ('A' for Active; 'I' for Inactive)
REMARK    1  A    between atoms: C_1  and  N_2
REMARK    2  A    between atoms: N_5  and  C_6
REMARK    3  A    between atoms: C_6  and  C_7
REMARK                            x       y       z     vdW  Elec       q    Type
REMARK                         _______ _______ _______ _____ _____    ______ ____
ROOT
ATOM      1  C   UNL     1      -2.027  -0.139   1.650  0.00  0.00    +0.000 C 
ENDROOT
BRANCH   1   6
ATOM      2  C   UNL     1       2.489   0.072   0.076  0.00  0.00    +0.000 C 
ATOM      3  N   UNL     1       1.096   0.099  -0.359  0.00  0.00    +0.000 NA
ATOM      4  C   UNL     1       0.408  -1.155  -0.009  0.00  0.00    +0.000 C 
ATOM      5  C   UNL     1      -1.082  -1.116  -0.411  0.00  0.00    +0.000 C 
ATOM      6  N   UNL     1      -1.851  -0.004   0.193  0.00  0.00    +0.000 NA
ATOM      7  C   UNL     1      -1.138   1.256  -0.129  0.00  0.00    +0.000 C 
ATOM      8  C   UNL     1       0.380   1.260   0.202  0.00  0.00    +0.000 C 
ENDBRANCH   1   6
BRANCH   1   9
ATOM      9  C   UNL     1      -2.742  -1.403   2.086  0.00  0.00    +0.000 A 
ATOM     10  C   UNL     1      -2.093  -2.334   2.913  0.00  0.00    +0.000 A 
ATOM     11  C   UNL     1      -2.739  -3.506   3.313  0.00  0.00    +0.000 A 
ATOM     12  C   UNL     1      -4.046  -3.750   2.893  0.00  0.00    +0.000 A 
ATOM     13 BR   UNL     1      -4.915  -5.343   3.420  0.00  0.00    +0.000 Br
ATOM     14  C   UNL     1      -4.712  -2.831   2.084  0.00  0.00    +0.000 A 
ATOM     15  C   UNL     1      -4.061  -1.662   1.681  0.00  0.00    +0.000 A 
ENDBRANCH   1   9
TORSDOF 2
ENDMDL
MODEL        5
REMARK  Name = ZINC20266675
REMARK  3 active torsions:
REMARK  status: ('A' for Active; 'I' for Inactive)
REMARK    1  A    between atoms: N_1  and  C_2
REMARK    2  A    between atoms: N_5  and  C_6
REMARK    3  A    between atoms: C_6  and  C_7
REMARK                            x       y       z     vdW  Elec       q    Type
REMARK                         _______ _______ _______ _____ _____    ______ ____
ROOT
ATOM      1  C   UNL     1       2.408  -0.133  -0.027  0.00  0.00    +0.000 C 
ATOM      2  C   UNL     1       2.776  -1.358   0.805  0.00  0.00    +0.000 C 
ATOM      3  C   UNL     1       2.140  -1.320   2.186  0.00  0.00    +0.000 C 
ATOM      4  N   UNL     1       2.491  -0.043   2.917  0.00  0.00    +0.000 N 
ATOM      5  C   UNL     1       2.239   1.212   2.105  0.00  0.00    +0.000 C 
ATOM      6  C   UNL     1       2.861   1.118   0.720  0.00  0.00    +0.000 C 
ATOM      7  H   UNL     1       3.496  -0.074   3.140  0.00  0.00    +0.000 HD
ENDROOT
BRANCH   1   8
ATOM      8  N   UNL     1       0.963  -0.095  -0.260  0.00  0.00    +0.000 NA
ATOM      9  H   UNL     1       0.678  -0.913  -0.810  0.00  0.00    +0.000 HD
ATOM     10  H   UNL     1       0.729   0.699  -0.867  0.00  0.00    +0.000 HD
ENDBRANCH   1   8
BRANCH   4  11
ATOM     11  C   UNL     1       1.757   0.064   4.244  0.00  0.00    +0.000 C 
BRANCH  11  12
ATOM     12  C   UNL     1       2.003  -1.059   5.218  0.00  0.00    +0.000 A 
ATOM     13  C   UNL     1       0.924  -1.855   5.638  0.00  0.00    +0.000 A 
ATOM     14  C   UNL     1       1.112  -2.882   6.568  0.00  0.00    +0.000 A 
ATOM     15  C   UNL     1       2.382  -3.121   7.086  0.00  0.00    +0.000 A 
ATOM     16 CL   UNL     1       2.611  -4.379   8.236  0.00  0.00    +0.000 Cl
ATOM     17  C   UNL     1       3.466  -2.349   6.681  0.00  0.00    +0.000 A 
ATOM     18  C   UNL     1       3.277  -1.323   5.753  0.00  0.00    +0.000 A 
ATOM     19 CL   UNL     1       4.653  -0.401   5.266  0.00  0.00    +0.000 Cl
ENDBRANCH  11  12
ENDBRANCH   4  11
TORSDOF 3
ENDMDL
MODEL        6
REMARK  Name = ZINC38032566
REMARK  3 active torsions:
REMARK  status: ('A' for Active; 'I' for Inactive)
REMARK    1  A    between atoms: N_1  and  C_2
REMARK    2  A    between atoms: N_10  and  C_11
REMARK    3  A    between atoms: C_11  and  C_12
REMARK                            x       y       z     vdW  Elec       q    Type
REMARK                         _______ _______ _______ _____ _____    ______ ____
ROOT
ATOM      1  C   UNL     1       2.372   0.130   0.096  0.00  0.00    +0.000 A 
ATOM      2  C   UNL     1       3.136   1.301   0.040  0.00  0.00    +0.000 A 
ATOM      3  C   UNL     1       4.528   1.257   0.081  0.00  0.00    +0.000 A 
ATOM      4  C   UNL     1       5.180   0.028   0.133  0.00  0.00    +0.000 A 
ATOM      5  C   UNL     1       4.446  -1.166   0.127  0.00  0.00    +0.000 A 
ATOM      6  C   UNL     1       3.033  -1.114   0.071  0.00  0.00    +0.000 A 
ATOM      7  C   UNL     1       2.235  -2.396   0.030  0.00  0.00    +0.000 C 
ATOM      8  C   UNL     1       3.055  -3.593  -0.437  0.00  0.00    +0.000 C 
ATOM      9  N   UNL     1       4.326  -3.672   0.375  0.00  0.00    +0.000 N 
ATOM     10  C   UNL     1       5.193  -2.474   0.089  0.00  0.00    +0.000 C 
ATOM     11  H   UNL     1       4.059  -3.602   1.363  0.00  0.00    +0.000 HD
ENDROOT
BRANCH   1  12
ATOM     12  N   UNL     1       0.983   0.225  -0.057  0.00  0.00    +0.000 N 
ATOM     13  H   UNL     1       0.602   1.140   0.178  0.00  0.00    +0.000 HD
ATOM     14  H   UNL     1       0.437  -0.513   0.371  0.00  0.00    +0.000 HD
ENDBRANCH   1  12
BRANCH   9  15
ATOM     15  C   UNL     1       5.079  -4.971   0.209  0.00  0.00    +0.000 C 
BRANCH  15  16
ATOM     16  C   UNL     1       4.252  -6.175   0.586  0.00  0.00    +0.000 A 
ATOM     17  C   UNL     1       3.914  -7.133  -0.384  0.00  0.00    +0.000 A 
ATOM     18  C   UNL     1       3.042  -8.180  -0.072  0.00  0.00    +0.000 A 
ATOM     19  C   UNL     1       2.507  -8.278   1.210  0.00  0.00    +0.000 A 
ATOM     20 CL   UNL     1       1.385  -9.527   1.575  0.00  0.00    +0.000 Cl
ATOM     21  C   UNL     1       2.864  -7.360   2.193  0.00  0.00    +0.000 A 
ATOM     22  C   UNL     1       3.743  -6.317   1.888  0.00  0.00    +0.000 A 
ENDBRANCH  15  16
ENDBRANCH   9  15
TORSDOF 3
ENDMDL
MODEL        7
REMARK  Name = ZINC82766137
REMARK  4 active torsions:
REMARK  status: ('A' for Active; 'I' for Inactive)
REMARK    1  A    between atoms: C_1  and  C_2
REMARK    2  A    between atoms: C_2  and  C_3
REMARK    3  A    between atoms: C_2  and  C_4
REMARK    4  A    between atoms: C_15  and  N_16
REMARK                            x       y       z     vdW  Elec       q    Type
REMARK                         _______ _______ _______ _____ _____    ______ ____
ROOT
ATOM      1  C   UNL     1       3.095   1.051  -0.833  0.00  0.00    +0.000 A 
ATOM      2  C   UNL     1       2.741   2.397  -0.748  0.00  0.00    +0.000 A 
ATOM      3  C   UNL     1       3.089   3.291  -1.772  0.00  0.00    +0.000 A 
ATOM      4  C   UNL     1       3.716   2.838  -2.950  0.00  0.00    +0.000 A 
ATOM      5  C   UNL     1       4.044   3.702  -3.997  0.00  0.00    +0.000 A 
ATOM      6  C   UNL     1       4.618   3.170  -5.138  0.00  0.00    +0.000 A 
ATOM      7  N   UNL     1       4.846   1.850  -5.327  0.00  0.00    +0.000 NA
ATOM      8  C   UNL     1       4.521   0.998  -4.331  0.00  0.00    +0.000 A 
ATOM      9  N   UNL     1       4.714  -0.372  -4.556  0.00  0.00    +0.000 N 
ATOM     10  C   UNL     1       5.548  -0.765  -5.683  0.00  0.00    +0.000 C 
ATOM     11  C   UNL     1       6.313  -1.996  -5.195  0.00  0.00    +0.000 C 
ATOM     12  C   UNL     1       5.361  -3.063  -4.643  0.00  0.00    +0.000 C 
ATOM     13  C   UNL     1       4.278  -2.540  -3.696  0.00  0.00    +0.000 C 
ATOM     14  C   UNL     1       3.614  -1.301  -4.301  0.00  0.00    +0.000 C 
ATOM     15  C   UNL     1       4.021   1.473  -3.085  0.00  0.00    +0.000 A 
ATOM     16  C   UNL     1       3.807   0.647  -1.960  0.00  0.00    +0.000 A 
ENDROOT
BRANCH  12  17
ATOM     17  N   UNL     1       6.179  -4.073  -3.901  0.00  0.00    +0.000 N 
ATOM     18  H   UNL     1       6.672  -3.638  -3.101  0.00  0.00    +0.000 HD
ATOM     19  H   UNL     1       6.898  -4.496  -4.503  0.00  0.00    +0.000 HD
ATOM     20  H   UNL     1       5.602  -4.836  -3.523  0.00  0.00    +0.000 HD
ENDBRANCH  12  17
BRANCH   1  22
ATOM     21  C   UNL     1       1.239  -0.518  -0.307  0.00  0.00    +0.000 C 
ATOM     22  C   UNL     1       2.593   0.027   0.174  0.00  0.00    +0.000 C 
ATOM     23  C   UNL     1       3.542  -1.156   0.416  0.00  0.00    +0.000 C 
ENDBRANCH   1  22
TORSDOF 2
ENDMDL
MODEL        8
REMARK  Name = ZINC71493215
REMARK  3 active torsions:
REMARK  status: ('A' for Active; 'I' for Inactive)
REMARK    1  A    between atoms: C_1  and  C_2
REMARK    2  A    between atoms: C_10  and  C_11
REMARK    3  A    between atoms: C_11  and  C_12
REMARK                            x       y       z     vdW  Elec       q    Type
REMARK                         _______ _______ _______ _____ _____    ______ ____
ROOT
ATOM      1  C   UNL     1      -1.458  -0.206   2.502  0.00  0.00    +0.000 C 
ATOM      2  C   UNL     1      -1.198  -0.125   1.042  0.00  0.00    +0.000 A 
ATOM      3  N   UNL     1      -0.716   1.032   0.482  0.00  0.00    +0.000 N 
ATOM      4  C   UNL     1      -0.532   0.881  -0.869  0.00  0.00    +0.000 A 
ATOM      5  C   UNL     1      -0.029   1.782  -1.815  0.00  0.00    +0.000 A 
ATOM      6  C   UNL     1       0.042   1.354  -3.143  0.00  0.00    +0.000 A 
ATOM      7  C   UNL     1      -0.378   0.078  -3.507  0.00  0.00    +0.000 A 
ATOM      8  C   UNL     1      -0.875  -0.811  -2.545  0.00  0.00    +0.000 A 
ATOM      9  C   UNL     1      -0.948  -0.408  -1.195  0.00  0.00    +0.000 A 
ATOM     10  C   UNL     1      -1.359  -1.055   0.021  0.00  0.00    +0.000 A 
ATOM     11  H   UNL     1      -0.506   1.879   0.990  0.00  0.00    +0.000 HD
ENDROOT
BRANCH  10  12
ATOM     12  C   UNL     1      -1.798  -2.490   0.144  0.00  0.00    +0.000 C 
BRANCH  12  13
ATOM     13  C   UNL     1      -3.298  -2.734  -0.016  0.00  0.00    +0.000 C 
ATOM     14  O   UNL     1      -4.117  -1.813  -0.051  0.00  0.00    +0.000 OA
ATOM     15  N   UNL     1      -3.713  -4.068  -0.101  0.00  0.00    +0.000 N 
ATOM     16  C   UNL     1      -2.851  -5.245   0.071  0.00  0.00    +0.000 C 
ATOM     17  C   UNL     1      -3.273  -6.401  -0.860  0.00  0.00    +0.000 C 
ATOM     18  N   UNL     1      -4.700  -6.751  -0.748  0.00  0.00    +0.000 NA
ATOM     19  C   UNL     1      -5.516  -5.546  -0.993  0.00  0.00    +0.000 C 
ATOM     20  C   UNL     1      -5.150  -4.364  -0.076  0.00  0.00    +0.000 C 
ATOM     21  H   UNL     1      -4.885  -7.080   0.199  0.00  0.00    +0.000 HD
ENDBRANCH  12  13
ENDBRANCH  10  12
TORSDOF 2
ENDMDL
MODEL        9
REMARK  Name = ZINC82752718
REMARK  2 active torsions:
REMARK  status: ('A' for Active; 'I' for Inactive)
REMARK    1  A    between atoms: C_5  and  C_6
REMARK    2  A    between atoms: C_9  and  C_10
REMARK                            x       y       z     vdW  Elec       q    Type
REMARK                         _______ _______ _______ _____ _____    ______ ____
ROOT
ATOM      1  C   UNL     1       2.560  -2.010   0.186  0.00  0.00    +0.000 A 
ATOM      2  N   UNL     1       3.424  -2.118   1.201  0.00  0.00    +0.000 NA
ATOM      3  N   UNL     1       4.363  -2.945   0.717  0.00  0.00    +0.000 N 
ATOM      4  C   UNL     1       4.026  -3.373  -0.537  0.00  0.00    +0.000 A 
ATOM      5  N   UNL     1       2.914  -2.774  -0.902  0.00  0.00    +0.000 NA
ATOM      6  H   UNL     1       5.160  -3.184   1.297  0.00  0.00    +0.000 HD
ENDROOT
BRANCH   1  11
ATOM      7 CL   UNL     1      -2.669   0.890  -0.092  0.00  0.00    +0.000 Cl
ATOM      8  C   UNL     1      -1.165   0.064   0.019  0.00  0.00    +0.000 A 
ATOM      9  C   UNL     1      -0.986  -1.128  -0.673  0.00  0.00    +0.000 A 
ATOM     10  C   UNL     1       0.240  -1.789  -0.587  0.00  0.00    +0.000 A 
ATOM     11  C   UNL     1       1.304  -1.268   0.183  0.00  0.00    +0.000 A 
ATOM     12  C   UNL     1       1.101  -0.060   0.867  0.00  0.00    +0.000 A 
ATOM     13 CL   UNL     1       2.337   0.734   1.781  0.00  0.00    +0.000 Cl
ATOM     14  C   UNL     1      -0.134   0.598   0.786  0.00  0.00    +0.000 A 
ENDBRANCH   1  11
BRANCH   4  15
ATOM     15  C   UNL     1       4.745  -4.404  -1.340  0.00  0.00    +0.000 C 
ATOM     16  C   UNL     1       5.262  -3.819  -2.662  0.00  0.00    +0.000 C 
ATOM     17  C   UNL     1       4.137  -3.382  -3.593  0.00  0.00    +0.000 C 
ATOM     18  N   UNL     1       3.160  -4.493  -3.800  0.00  0.00    +0.000 N 
ATOM     19  C   UNL     1       2.647  -5.175  -2.575  0.00  0.00    +0.000 C 
ATOM     20  C   UNL     1       3.796  -5.574  -1.653  0.00  0.00    +0.000 C 
ATOM     21  H   UNL     1       3.563  -5.193  -4.439  0.00  0.00    +0.000 HD
ATOM     22  H   UNL     1       2.351  -4.100  -4.299  0.00  0.00    +0.000 HD
ENDBRANCH   4  15
TORSDOF 2
ENDMDL
MODEL       10
REMARK  Name = ZINC58393727
REMARK  2 active torsions:
REMARK  status: ('A' for Active; 'I' for Inactive)
REMARK    1  A    between atoms: C_5  and  C_6
REMARK    2  A    between atoms: C_6  and  N_7
REMARK                            x       y       z     vdW  Elec       q    Type
REMARK                         _______ _______ _______ _____ _____    ______ ____
ROOT
ATOM      1  N   UNL     1       3.430   1.628  -0.008  0.00  0.00    +0.000 NA
ATOM      2  C   UNL     1       4.320   2.169   1.005  0.00  0.00    +0.000 C 
ATOM      3  C   UNL     1       4.729   1.248   2.155  0.00  0.00    +0.000 C 
ATOM      4  C   UNL     1       3.774   0.126   2.511  0.00  0.00    +0.000 C 
ATOM      5  N   UNL     1       3.735  -1.002   1.515  0.00  0.00    +0.000 N 
ATOM      6  C   UNL     1       2.493  -1.868   1.575  0.00  0.00    +0.000 C 
ATOM      7  C   UNL     1       2.757  -2.860   0.463  0.00  0.00    +0.000 C 
ATOM      8  C   UNL     1       3.305  -1.982  -0.654  0.00  0.00    +0.000 C 
ATOM      9  C   UNL     1       4.143  -0.891   0.036  0.00  0.00    +0.000 C 
ATOM     10  C   UNL     1       4.015   0.474  -0.694  0.00  0.00    +0.000 C 
ATOM     11  H   UNL     1       4.468  -1.624   1.884  0.00  0.00    +0.000 HD
ENDROOT
BRANCH   1  12
ATOM     12  C   UNL     1       2.014   1.448   0.282  0.00  0.00    +0.000 C 
BRANCH  12  17
ATOM     13 CL   UNL     1      -0.995   6.155   2.514  0.00  0.00    +0.000 Cl
ATOM     14  C   UNL     1      -0.173   4.770   1.924  0.00  0.00    +0.000 A 
ATOM     15  C   UNL     1      -0.511   4.242   0.682  0.00  0.00    +0.000 A 
ATOM     16  C   UNL     1       0.207   3.160   0.165  0.00  0.00    +0.000 A 
ATOM     17  C   UNL     1       1.265   2.604   0.891  0.00  0.00    +0.000 A 
ATOM     18  C   UNL     1       1.527   3.088   2.185  0.00  0.00    +0.000 A 
ATOM     19  C   UNL     1       0.831   4.184   2.691  0.00  0.00    +0.000 A 
ENDBRANCH  12  17
ENDBRANCH   1  12
TORSDOF 2
ENDMDL
MODEL       11
REMARK  Name = ZINC75567398
REMARK  1 active torsions:
REMARK  status: ('A' for Active; 'I' for Inactive)
REMARK    1  A    between atoms: C_1  and  N_2
REMARK                            x       y       z     vdW  Elec       q    Type
REMARK                         _______ _______ _______ _____ _____    ______ ____
ROOT
ATOM      1  C   UNL     1       1.014  -0.023  -0.071  0.00  0.00    +0.000 C 
ATOM      2  N   UNL     1       2.507   0.000  -0.011  0.00  0.00    +0.000 N 
ATOM      3  C   UNL     1       3.088  -1.156   0.802  0.00  0.00    +0.000 C 
ATOM      4  C   UNL     1       4.621  -1.236   0.624  0.00  0.00    +0.000 C 
ATOM      5  C   UNL     1       5.222   0.129   0.762  0.00  0.00    +0.000 A 
ATOM      6  C   UNL     1       4.495   1.301   0.692  0.00  0.00    +0.000 A 
ATOM      7  C   UNL     1       5.394   2.375   0.897  0.00  0.00    +0.000 A 
ATOM      8  C   UNL     1       5.234   3.777   0.916  0.00  0.00    +0.000 A 
ATOM      9  C   UNL     1       6.347   4.603   1.087  0.00  0.00    +0.000 A 
ATOM     10  C   UNL     1       7.613   4.053   1.219  0.00  0.00    +0.000 A 
ATOM     11  C   UNL     1       7.796   2.669   1.199  0.00  0.00    +0.000 A 
ATOM     12  C   UNL     1       6.672   1.824   1.079  0.00  0.00    +0.000 A 
ATOM     13  N   UNL     1       6.552   0.426   1.029  0.00  0.00    +0.000 N 
ATOM     14  C   UNL     1       7.606  -0.535   1.165  0.00  0.00    +0.000 A 
ATOM     15  C   UNL     1       8.696  -0.265   1.990  0.00  0.00    +0.000 A 
ATOM     16  C   UNL     1       9.759  -1.163   2.019  0.00  0.00    +0.000 A 
ATOM     17  C   UNL     1       9.702  -2.310   1.241  0.00  0.00    +0.000 A 
ATOM     18  C   UNL     1       8.559  -2.535   0.494  0.00  0.00    +0.000 A 
ATOM     19  N   UNL     1       7.501  -1.690   0.456  0.00  0.00    +0.000 NA
ATOM     20  C   UNL     1       3.027   1.348   0.470  0.00  0.00    +0.000 C 
ATOM     21  H   UNL     1       2.869  -0.108  -0.966  0.00  0.00    +0.000 HD
ENDROOT
TORSDOF 0
ENDMDL
MODEL       12
REMARK  Name = ZINC35476207
REMARK  4 active torsions:
REMARK  status: ('A' for Active; 'I' for Inactive)
REMARK    1  A    between atoms: C_1  and  C_2
REMARK    2  A    between atoms: C_2  and  C_3
REMARK    3  A    between atoms: C_6  and  C_7
REMARK    4  A    between atoms: C_15  and  C_16
REMARK                            x       y       z     vdW  Elec       q    Type
REMARK                         _______ _______ _______ _____ _____    ______ ____
ROOT
ATOM      1  C   UNL     1       4.171   0.502   5.507  0.00  0.00    +0.000 C 
ATOM      2  C   UNL     1       3.145   1.293   6.332  0.00  0.00    +0.000 C 
ATOM      3  C   UNL     1       3.301   2.809   6.260  0.00  0.00    +0.000 C 
ATOM      4  O   UNL     1       2.331   3.562   6.343  0.00  0.00    +0.000 OA
ATOM      5  N   UNL     1       4.578   3.307   6.211  0.00  0.00    +0.000 N 
ATOM      6  C   UNL     1       5.645   2.513   5.904  0.00  0.00    +0.000 A 
ATOM      7  N   UNL     1       6.902   2.933   5.833  0.00  0.00    +0.000 NA
ATOM      8  N   UNL     1       7.575   1.834   5.439  0.00  0.00    +0.000 N 
ATOM      9  C   UNL     1       6.778   0.736   5.241  0.00  0.00    +0.000 A 
ATOM     10  C   UNL     1       7.296  -0.557   4.747  0.00  0.00    +0.000 C 
ATOM     11  C   UNL     1       5.502   1.161   5.546  0.00  0.00    +0.000 A 
ATOM     12  H   UNL     1       4.735   4.302   6.272  0.00  0.00    +0.000 HD
ATOM     13  H   UNL     1       8.580   1.912   5.306  0.00  0.00    +0.000 HD
ENDROOT
BRANCH   1  17
ATOM     14  C   UNL     1       3.021   0.043   1.336  0.00  0.00    +0.000 A 
ATOM     15  C   UNL     1       3.245   1.318   1.861  0.00  0.00    +0.000 A 
ATOM     16  C   UNL     1       3.623   1.479   3.195  0.00  0.00    +0.000 A 
ATOM     17  C   UNL     1       3.799   0.369   4.038  0.00  0.00    +0.000 A 
ATOM     18  C   UNL     1       3.596  -0.910   3.494  0.00  0.00    +0.000 A 
ATOM     19  C   UNL     1       3.215  -1.071   2.158  0.00  0.00    +0.000 A 
BRANCH  14  21
ATOM     20  C   UNL     1       3.772  -0.192  -1.048  0.00  0.00    +0.000 C 
ATOM     21  C   UNL     1       2.588  -0.120  -0.097  0.00  0.00    +0.000 C 
ENDBRANCH  14  21
ENDBRANCH   1  17
TORSDOF 2
ENDMDL
MODEL       13
REMARK  Name = ZINC00184014
REMARK  2 active torsions:
REMARK  status: ('A' for Active; 'I' for Inactive)
REMARK    1  A    between atoms: N_10  and  C_11
REMARK    2  A    between atoms: C_11  and  C_12
REMARK                            x       y       z     vdW  Elec       q    Type
REMARK                         _______ _______ _______ _____ _____    ______ ____
ROOT
ATOM      1  N   UNL     1       1.110  -0.305  -0.241  0.00  0.00    +0.000 N 
ATOM      2  C   UNL     1       2.419  -0.166  -0.053  0.00  0.00    +0.000 A 
ATOM      3  N   UNL     1       3.249  -1.186   0.034  0.00  0.00    +0.000 N 
ATOM      4  C   UNL     1       4.550  -0.739   0.080  0.00  0.00    +0.000 A 
ATOM      5  C   UNL     1       5.755  -1.426   0.104  0.00  0.00    +0.000 A 
ATOM      6  C   UNL     1       6.909  -0.628   0.109  0.00  0.00    +0.000 A 
ATOM      7  C   UNL     1       6.834   0.779   0.103  0.00  0.00    +0.000 A 
ATOM      8  C   UNL     1       5.606   1.460   0.095  0.00  0.00    +0.000 A 
ATOM      9  C   UNL     1       4.469   0.655   0.080  0.00  0.00    +0.000 A 
ATOM     10  N   UNL     1       3.102   0.965   0.038  0.00  0.00    +0.000 N 
ATOM     11  H   UNL     1       0.694  -1.225  -0.293  0.00  0.00    +0.000 HD
ATOM     12  H   UNL     1       0.516   0.491  -0.418  0.00  0.00    +0.000 HD
ATOM     13  H   UNL     1       2.984  -2.161   0.025  0.00  0.00    +0.000 HD
ENDROOT
BRANCH  10  14
ATOM     14  C   UNL     1       2.541   2.307   0.127  0.00  0.00    +0.000 C 
BRANCH  14  15
ATOM     15  C   UNL     1       2.524   3.004  -1.215  0.00  0.00    +0.000 A 
ATOM     16  C   UNL     1       2.875   2.367  -2.417  0.00  0.00    +0.000 A 
ATOM     17  C   UNL     1       2.947   3.084  -3.613  0.00  0.00    +0.000 A 
ATOM     18  C   UNL     1       2.649   4.443  -3.630  0.00  0.00    +0.000 A 
ATOM     19 CL   UNL     1       2.812   5.334  -5.089  0.00  0.00    +0.000 Cl
ATOM     20  C   UNL     1       2.244   5.083  -2.461  0.00  0.00    +0.000 A 
ATOM     21  C   UNL     1       2.177   4.366  -1.263  0.00  0.00    +0.000 A 
ENDBRANCH  14  15
ENDBRANCH  10  14
TORSDOF 2
ENDMDL
MODEL       14
REMARK  Name = ZINC69869800
REMARK  2 active torsions:
REMARK  status: ('A' for Active; 'I' for Inactive)
REMARK    1  A    between atoms: C_5  and  C_6
REMARK    2  A    between atoms: C_6  and  N_7
REMARK                            x       y       z     vdW  Elec       q    Type
REMARK                         _______ _______ _______ _____ _____    ______ ____
ROOT
ATOM      1  C   UNL     1      -1.198   2.711  -0.094  0.00  0.00    +0.000 C 
ENDROOT
BRANCH   1   2
ATOM      2  N   UNL     1       0.088   3.542  -0.115  0.00  0.00    +0.000 N 
ATOM      3  C   UNL     1       0.987   3.201  -1.275  0.00  0.00    +0.000 C 
ATOM      4  C   UNL     1       2.329   3.932  -1.240  0.00  0.00    +0.000 C 
ATOM      5  C   UNL     1       2.994   3.869   0.093  0.00  0.00    +0.000 A 
ATOM      6  C   UNL     1       4.363   3.967   0.245  0.00  0.00    +0.000 A 
ATOM      7  N   UNL     1       4.976   3.954   1.439  0.00  0.00    +0.000 NA
ATOM      8  C   UNL     1       4.188   3.851   2.513  0.00  0.00    +0.000 A 
ATOM      9  N   UNL     1       2.850   3.759   2.483  0.00  0.00    +0.000 NA
ATOM     10  C   UNL     1       2.269   3.763   1.264  0.00  0.00    +0.000 A 
ATOM     11  C   UNL     1       0.775   3.598   1.242  0.00  0.00    +0.000 C 
ATOM     12  H   UNL     1      -0.221   4.509  -0.274  0.00  0.00    +0.000 HD
ENDBRANCH   1   2
BRANCH   1  17
ATOM     13  C   UNL     1      -0.976  -1.578  -3.222  0.00  0.00    +0.000 A 
ATOM     14  C   UNL     1      -1.085  -0.220  -3.495  0.00  0.00    +0.000 A 
ATOM     15  C   UNL     1      -1.118   0.705  -2.444  0.00  0.00    +0.000 A 
ATOM     16  C   UNL     1      -1.035   0.311  -1.084  0.00  0.00    +0.000 A 
ATOM     17  C   UNL     1      -1.066   1.202   0.039  0.00  0.00    +0.000 A 
ATOM     18  C   UNL     1      -1.014   0.659   1.338  0.00  0.00    +0.000 A 
ATOM     19  C   UNL     1      -0.887  -0.708   1.548  0.00  0.00    +0.000 A 
ATOM     20  C   UNL     1      -0.845  -1.578   0.467  0.00  0.00    +0.000 A 
ATOM     21  C   UNL     1      -0.919  -1.088  -0.839  0.00  0.00    +0.000 A 
ATOM     22  C   UNL     1      -0.894  -2.007  -1.903  0.00  0.00    +0.000 A 
ENDBRANCH   1  17
TORSDOF 2
ENDMDL
MODEL       15
REMARK  Name = ZINC82752840
REMARK  2 active torsions:
REMARK  status: ('A' for Active; 'I' for Inactive)
REMARK    1  A    between atoms: C_5  and  C_6
REMARK    2  A    between atoms: C_9  and  C_10
REMARK                            x       y       z     vdW  Elec       q    Type
REMARK                         _______ _______ _______ _____ _____    ______ ____
ROOT
ATOM      1  C   UNL     1       3.892   0.036  -0.050  0.00  0.00    +0.000 A 
ATOM      2  N   UNL     1       4.657  -0.742  -0.830  0.00  0.00    +0.000 NA
ATOM      3  N   UNL     1       5.893  -0.463  -0.407  0.00  0.00    +0.000 N 
ATOM      4  C   UNL     1       5.859   0.421   0.635  0.00  0.00    +0.000 A 
ATOM      5  N   UNL     1       4.618   0.810   0.834  0.00  0.00    +0.000 NA
ATOM      6  H   UNL     1       6.681  -0.930  -0.847  0.00  0.00    +0.000 HD
ENDROOT
BRANCH   4   7
ATOM      7  C   UNL     1       7.042   0.818   1.460  0.00  0.00    +0.000 C 
ATOM      8  C   UNL     1       7.205  -0.124   2.670  0.00  0.00    +0.000 C 
ATOM      9  C   UNL     1       6.089   0.025   3.714  0.00  0.00    +0.000 C 
ATOM     10  C   UNL     1       5.858   1.475   4.121  0.00  0.00    +0.000 C 
ATOM     11  N   UNL     1       5.690   2.314   2.904  0.00  0.00    +0.000 N 
ATOM     12  C   UNL     1       6.854   2.260   1.956  0.00  0.00    +0.000 C 
ATOM     13  H   UNL     1       5.475   3.287   3.157  0.00  0.00    +0.000 HD
ATOM     14  H   UNL     1       4.864   1.968   2.373  0.00  0.00    +0.000 HD
ENDBRANCH   4   7
BRANCH   1  19
ATOM     15 CL   UNL     1      -2.078   0.052  -0.146  0.00  0.00    +0.000 Cl
ATOM     16  C   UNL     1      -0.360   0.045  -0.112  0.00  0.00    +0.000 A 
ATOM     17  C   UNL     1       0.344  -0.839  -0.932  0.00  0.00    +0.000 A 
ATOM     18  C   UNL     1       1.736  -0.844  -0.909  0.00  0.00    +0.000 A 
ATOM     19  C   UNL     1       2.439   0.033  -0.071  0.00  0.00    +0.000 A 
ATOM     20  C   UNL     1       1.717   0.906   0.761  0.00  0.00    +0.000 A 
ATOM     21  C   UNL     1       0.322   0.915   0.734  0.00  0.00    +0.000 A 
ENDBRANCH   1  19
TORSDOF 2
ENDMDL
MODEL       16
REMARK  Name = ZINC75973400
REMARK  5 active torsions:
REMARK  status: ('A' for Active; 'I' for Inactive)
REMARK    1  A    between atoms: C_1  and  C_2
REMARK    2  A    between atoms: N_10  and  C_11
REMARK    3  A    between atoms: C_14  and  N_15
REMARK    4  A    between atoms: N_15  and  C_16
REMARK    5  A    between atoms: N_15  and  C_17
REMARK                            x       y       z     vdW  Elec       q    Type
REMARK                         _______ _______ _______ _____ _____    ______ ____
ROOT
ATOM      1  C   UNL     1       1.074   0.045  -0.872  0.00  0.00    +0.000 C 
ATOM      2  C   UNL     1       2.477  -0.068  -0.370  0.00  0.00    +0.000 A 
ATOM      3  N   UNL     1       3.270   1.002  -0.212  0.00  0.00    +0.000 N 
ATOM      4  C   UNL     1       4.475   0.661   0.335  0.00  0.00    +0.000 A 
ATOM      5  C   UNL     1       5.565   1.452   0.674  0.00  0.00    +0.000 A 
ATOM      6  C   UNL     1       6.671   0.776   1.199  0.00  0.00    +0.000 A 
ATOM      7  C   UNL     1       6.671  -0.622   1.350  0.00  0.00    +0.000 A 
ATOM      8  C   UNL     1       5.565  -1.407   0.995  0.00  0.00    +0.000 A 
ATOM      9  C   UNL     1       4.445  -0.726   0.505  0.00  0.00    +0.000 A 
ATOM     10  N   UNL     1       3.171  -1.153   0.062  0.00  0.00    +0.000 N 
ATOM     11  H   UNL     1       2.998   1.948  -0.459  0.00  0.00    +0.000 HD
ENDROOT
BRANCH  10  12
ATOM     12  C   UNL     1       2.672  -2.536   0.059  0.00  0.00    +0.000 A 
ATOM     13  C   UNL     1       3.028  -3.398   1.086  0.00  0.00    +0.000 A 
ATOM     14  C   UNL     1       2.645  -4.747   1.026  0.00  0.00    +0.000 A 
ATOM     15  C   UNL     1       1.884  -5.263  -0.035  0.00  0.00    +0.000 A 
ATOM     16  C   UNL     1       1.508  -4.341  -1.028  0.00  0.00    +0.000 A 
ATOM     17  C   UNL     1       1.901  -2.995  -0.995  0.00  0.00    +0.000 A 
BRANCH  15  18
ATOM     18  N   UNL     1       1.568  -6.605  -0.145  0.00  0.00    +0.000 N 
ATOM     19  C   UNL     1       0.318  -7.053  -0.760  0.00  0.00    +0.000 C 
ATOM     20  C   UNL     1       2.268  -7.640   0.616  0.00  0.00    +0.000 C 
ENDBRANCH  15  18
ENDBRANCH  10  12
TORSDOF 2
ENDMDL
MODEL       17
REMARK  Name = ZINC15636911
REMARK  5 active torsions:
REMARK  status: ('A' for Active; 'I' for Inactive)
REMARK    1  A    between atoms: C_1  and  C_2
REMARK    2  A    between atoms: C_5  and  N_6
REMARK    3  A    between atoms: C_7  and  C_12
REMARK    4  A    between atoms: N_8  and  C_9
REMARK    5  A    between atoms: C_9  and  N_10
REMARK                            x       y       z     vdW  Elec       q    Type
REMARK                         _______ _______ _______ _____ _____    ______ ____
ROOT
ATOM      1  N   UNL     1      -3.196   0.255  -0.125  0.00  0.00    +0.000 NA
ATOM      2  C   UNL     1      -3.951   1.300  -0.252  0.00  0.00    +0.000 C 
ATOM      3  N   UNL     1      -3.555   2.651  -0.307  0.00  0.00    +0.000 N 
ATOM      4  H   UNL     1      -4.161   3.268   0.217  0.00  0.00    +0.000 HD
ENDROOT
BRANCH   1   9
ATOM      5  C   UNL     1       2.535  -0.122  -0.106  0.00  0.00    +0.000 C 
ATOM      6  C   UNL     1       1.037  -0.032  -0.036  0.00  0.00    +0.000 A 
ATOM      7  C   UNL     1       0.409   1.050   0.576  0.00  0.00    +0.000 A 
ATOM      8  C   UNL     1      -0.996   1.117   0.656  0.00  0.00    +0.000 A 
ATOM      9  C   UNL     1      -1.801   0.189  -0.007  0.00  0.00    +0.000 A 
ATOM     10  C   UNL     1      -1.166  -0.932  -0.542  0.00  0.00    +0.000 A 
ATOM     11  C   UNL     1       0.236  -1.058  -0.550  0.00  0.00    +0.000 A 
ENDBRANCH   1   9
BRANCH   2  12
ATOM     12  C   UNL     1      -5.466   1.145  -0.270  0.00  0.00    +0.000 A 
ATOM     13  C   UNL     1      -6.097   0.058   0.346  0.00  0.00    +0.000 A 
ATOM     14  C   UNL     1      -7.500  -0.018   0.393  0.00  0.00    +0.000 A 
ATOM     15  C   UNL     1      -8.282   0.996  -0.171  0.00  0.00    +0.000 A 
ATOM     16  C   UNL     1      -7.662   2.043  -0.840  0.00  0.00    +0.000 A 
ATOM     17  C   UNL     1      -6.265   2.102  -0.915  0.00  0.00    +0.000 A 
ENDBRANCH   2  12
BRANCH   3  18
ATOM     18  C   UNL     1      -2.443   3.316  -0.764  0.00  0.00    +0.000 C 
ATOM     19  S   UNL     1      -2.002   4.784  -0.118  0.00  0.00    +0.000 S 
BRANCH  18  20
ATOM     20  N   UNL     1      -1.764   2.776  -1.796  0.00  0.00    +0.000 N 
ATOM     21  H   UNL     1      -2.037   1.894  -2.209  0.00  0.00    +0.000 HD
ATOM     22  H   UNL     1      -0.858   3.154  -2.043  0.00  0.00    +0.000 HD
ENDBRANCH  18  20
ENDBRANCH   3  18
TORSDOF 4
ENDMDL
MODEL       18
REMARK  Name = ZINC70451801
REMARK  4 active torsions:
REMARK  status: ('A' for Active; 'I' for Inactive)
REMARK    1  A    between atoms: C_1  and  C_2
REMARK    2  A    between atoms: C_5  and  C_6
REMARK    3  A    between atoms: C_12  and  N_13
REMARK    4  A    between atoms: C_17  and  C_18
REMARK                            x       y       z     vdW  Elec       q    Type
REMARK                         _______ _______ _______ _____ _____    ______ ____
ROOT
ATOM      1  C   UNL     1      -3.366   0.044  -0.140  0.00  0.00    +0.000 A 
ATOM      2  N   UNL     1      -3.997   0.642  -1.185  0.00  0.00    +0.000 NA
ATOM      3  C   UNL     1      -5.343   0.661  -1.185  0.00  0.00    +0.000 A 
ATOM      4  N   UNL     1      -6.008   1.320  -2.205  0.00  0.00    +0.000 N 
ATOM      5  C   UNL     1      -5.297   2.330  -2.992  0.00  0.00    +0.000 C 
ATOM      6  C   UNL     1      -4.882   1.746  -4.339  0.00  0.00    +0.000 C 
ATOM      7  C   UNL     1      -6.080   1.106  -5.041  0.00  0.00    +0.000 C 
ATOM      8  C   UNL     1      -6.827   0.111  -4.153  0.00  0.00    +0.000 C 
ATOM      9  C   UNL     1      -7.210   0.761  -2.823  0.00  0.00    +0.000 C 
ATOM     10  C   UNL     1      -6.048   0.067  -0.143  0.00  0.00    +0.000 A 
ATOM     11  C   UNL     1      -5.352  -0.528   0.910  0.00  0.00    +0.000 A 
ATOM     12  C   UNL     1      -6.036  -1.172   2.071  0.00  0.00    +0.000 C 
ATOM     13  N   UNL     1      -4.012  -0.512   0.890  0.00  0.00    +0.000 N 
ATOM     14  H   UNL     1      -3.482  -0.887   1.673  0.00  0.00    +0.000 HD
ENDROOT
BRANCH   1  19
ATOM     15  C   UNL     1       2.445  -0.062   0.012  0.00  0.00    +0.000 C 
ATOM     16  C   UNL     1       0.944  -0.027  -0.024  0.00  0.00    +0.000 A 
ATOM     17  C   UNL     1       0.260   1.014  -0.653  0.00  0.00    +0.000 A 
ATOM     18  C   UNL     1      -1.140   1.025  -0.688  0.00  0.00    +0.000 A 
ATOM     19  C   UNL     1      -1.899  -0.000  -0.097  0.00  0.00    +0.000 A 
ATOM     20  C   UNL     1      -1.190  -1.052   0.519  0.00  0.00    +0.000 A 
ATOM     21  C   UNL     1       0.209  -1.059   0.563  0.00  0.00    +0.000 A 
ENDBRANCH   1  19
BRANCH   7  22
ATOM     22  N   UNL     1      -5.595   0.391  -6.262  0.00  0.00    +0.000 N 
ATOM     23  H   UNL     1      -4.909  -0.344  -6.041  0.00  0.00    +0.000 HD
ATOM     24  H   UNL     1      -5.139   1.036  -6.925  0.00  0.00    +0.000 HD
ATOM     25  H   UNL     1      -6.365  -0.058  -6.779  0.00  0.00    +0.000 HD
ENDBRANCH   7  22
TORSDOF 2
ENDMDL
MODEL       19
REMARK  Name = ZINC71630114
REMARK  2 active torsions:
REMARK  status: ('A' for Active; 'I' for Inactive)
REMARK    1  A    between atoms: C_5  and  C_6
REMARK    2  A    between atoms: N_9  and  C_10
REMARK                            x       y       z     vdW  Elec       q    Type
REMARK                         _______ _______ _______ _____ _____    ______ ____
ROOT
ATOM      1  C   UNL     1       3.784   0.078   0.158  0.00  0.00    +0.000 C 
ATOM      2  C   UNL     1       4.385   0.864   1.339  0.00  0.00    +0.000 C 
ATOM      3  C   UNL     1       4.230   2.386   1.193  0.00  0.00    +0.000 C 
ATOM      4  N   UNL     1       4.751   2.885  -0.083  0.00  0.00    +0.000 NA
ATOM      5  C   UNL     1       4.218   2.146  -1.241  0.00  0.00    +0.000 C 
ATOM      6  C   UNL     1       4.428   0.639  -1.120  0.00  0.00    +0.000 C 
ENDROOT
BRANCH   4   7
ATOM      7  C   UNL     1       4.665   4.337  -0.294  0.00  0.00    +0.000 C 
ATOM      8  C   UNL     1       3.265   4.974  -0.205  0.00  0.00    +0.000 C 
ATOM      9  C   UNL     1       3.338   6.420  -0.679  0.00  0.00    +0.000 C 
ATOM     10  N   UNL     1       4.359   7.171   0.114  0.00  0.00    +0.000 N 
ATOM     11  C   UNL     1       5.718   6.547   0.156  0.00  0.00    +0.000 C 
ATOM     12  C   UNL     1       5.610   5.110   0.639  0.00  0.00    +0.000 C 
ATOM     13  H   UNL     1       4.016   7.303   1.076  0.00  0.00    +0.000 HD
ATOM     14  H   UNL     1       4.447   8.122  -0.276  0.00  0.00    +0.000 HD
ENDBRANCH   4   7
BRANCH   1  19
ATOM     15 CL   UNL     1      -2.265  -0.289  -0.234  0.00  0.00    +0.000 Cl
ATOM     16  C   UNL     1      -0.553  -0.184  -0.114  0.00  0.00    +0.000 A 
ATOM     17  C   UNL     1       0.022   0.460   0.975  0.00  0.00    +0.000 A 
ATOM     18  C   UNL     1       1.417   0.544   1.077  0.00  0.00    +0.000 A 
ATOM     19  C   UNL     1       2.256   0.013   0.085  0.00  0.00    +0.000 A 
ATOM     20  C   UNL     1       1.643  -0.660  -0.989  0.00  0.00    +0.000 A 
ATOM     21  C   UNL     1       0.250  -0.753  -1.093  0.00  0.00    +0.000 A 
ENDBRANCH   1  19
TORSDOF 2
ENDMDL
MODEL       20
REMARK  Name = ZINC71601416
REMARK  3 active torsions:
REMARK  status: ('A' for Active; 'I' for Inactive)
REMARK    1  A    between atoms: N_1  and  N_2
REMARK    2  A    between atoms: N_5  and  C_6
REMARK    3  A    between atoms: C_6  and  C_7
REMARK                            x       y       z     vdW  Elec       q    Type
REMARK                         _______ _______ _______ _____ _____    ______ ____
ROOT
ATOM      1  N   UNL     1       2.282   0.060   0.056  0.00  0.00    +0.000 NA
ATOM      2  C   UNL     1       2.694   1.082  -0.936  0.00  0.00    +0.000 C 
ATOM      3  C   UNL     1       2.457   0.659  -2.397  0.00  0.00    +0.000 C 
ATOM      4  N   UNL     1       3.059  -0.637  -2.747  0.00  0.00    +0.000 NA
ATOM      5  C   UNL     1       2.642  -1.671  -1.787  0.00  0.00    +0.000 C 
ATOM      6  C   UNL     1       2.820  -1.274  -0.304  0.00  0.00    +0.000 C 
ENDROOT
BRANCH   1   7
ATOM      7  N   UNL     1       0.867   0.033   0.220  0.00  0.00    +0.000 N 
ATOM      8  H   UNL     1       0.509   0.956   0.519  0.00  0.00    +0.000 HD
ATOM      9  H   UNL     1       0.592  -0.623   0.970  0.00  0.00    +0.000 HD
ATOM     10  H   UNL     1       0.356  -0.237  -0.636  0.00  0.00    +0.000 HD
ENDBRANCH   1   7
BRANCH   4  11
ATOM     11  C   UNL     1       4.534  -0.591  -2.871  0.00  0.00    +0.000 C 
BRANCH  11  12
ATOM     12  C   UNL     1       5.025   0.421  -3.882  0.00  0.00    +0.000 A 
ATOM     13  C   UNL     1       5.814   1.508  -3.477  0.00  0.00    +0.000 A 
ATOM     14  C   UNL     1       6.222   2.471  -4.402  0.00  0.00    +0.000 A 
ATOM     15  C   UNL     1       5.847   2.349  -5.739  0.00  0.00    +0.000 A 
ATOM     16 BR   UNL     1       6.366   3.674  -6.982  0.00  0.00    +0.000 Br
ATOM     17  C   UNL     1       5.084   1.264  -6.162  0.00  0.00    +0.000 A 
ATOM     18  C   UNL     1       4.677   0.301  -5.236  0.00  0.00    +0.000 A 
ENDBRANCH  11  12
ENDBRANCH   4  11
TORSDOF 3
ENDMDL
MODEL       21
REMARK  Name = ZINC21987165
REMARK  2 active torsions:
REMARK  status: ('A' for Active; 'I' for Inactive)
REMARK    1  A    between atoms: C_1  and  N_2
REMARK    2  A    between atoms: N_5  and  C_6
REMARK                            x       y       z     vdW  Elec       q    Type
REMARK                         _______ _______ _______ _____ _____    ______ ____
ROOT
ATOM      1  C   UNL     1       2.454   0.016   0.067  0.00  0.00    +0.000 C 
ATOM      2  N   UNL     1       1.049   0.003  -0.334  0.00  0.00    +0.000 NA
ATOM      3  C   UNL     1       0.371  -1.205   0.196  0.00  0.00    +0.000 C 
ATOM      4  C   UNL     1      -1.140  -1.241  -0.137  0.00  0.00    +0.000 C 
ATOM      5  N   UNL     1      -1.762  -0.016   0.384  0.00  0.00    +0.000 N 
ATOM      6  C   UNL     1      -1.155   1.216  -0.150  0.00  0.00    +0.000 C 
ATOM      7  C   UNL     1       0.358   1.215   0.169  0.00  0.00    +0.000 C 
ENDROOT
BRANCH   5   8
ATOM      8  C   UNL     1      -3.074   0.016   0.807  0.00  0.00    +0.000 A 
ATOM      9  C   UNL     1      -3.464   0.958   1.774  0.00  0.00    +0.000 A 
ATOM     10  C   UNL     1      -4.765   1.014   2.272  0.00  0.00    +0.000 A 
ATOM     11  C   UNL     1      -5.712   0.113   1.802  0.00  0.00    +0.000 A 
ATOM     12 BR   UNL     1      -7.484   0.192   2.455  0.00  0.00    +0.000 Br
ATOM     13  C   UNL     1      -5.360  -0.844   0.855  0.00  0.00    +0.000 A 
ATOM     14  C   UNL     1      -4.049  -0.893   0.370  0.00  0.00    +0.000 A 
ENDBRANCH   5   8
TORSDOF 1
ENDMDL
MODEL       22
REMARK  Name = ZINC82807662
REMARK  3 active torsions:
REMARK  status: ('A' for Active; 'I' for Inactive)
REMARK    1  A    between atoms: C_1  and  N_2
REMARK    2  A    between atoms: C_8  and  C_9
REMARK    3  A    between atoms: C_9  and  C_10
REMARK                            x       y       z     vdW  Elec       q    Type
REMARK                         _______ _______ _______ _____ _____    ______ ____
ROOT
ATOM      1  C   UNL     1       0.680  -0.058  -0.105  0.00  0.00    +0.000 C 
ATOM      2  N   UNL     1       2.179  -0.057  -0.045  0.00  0.00    +0.000 N 
ATOM      3  C   UNL     1       2.748  -1.364   0.524  0.00  0.00    +0.000 C 
ATOM      4  C   UNL     1       3.585  -1.328   1.820  0.00  0.00    +0.000 C 
ATOM      5  C   UNL     1       3.940   0.034   2.239  0.00  0.00    +0.000 A 
ATOM      6  N   UNL     1       4.720   0.379   3.303  0.00  0.00    +0.000 N 
ATOM      7  N   UNL     1       4.868   1.707   3.416  0.00  0.00    +0.000 NA
ATOM      8  C   UNL     1       4.132   2.230   2.427  0.00  0.00    +0.000 A 
ATOM      9  C   UNL     1       3.547   1.202   1.647  0.00  0.00    +0.000 A 
ATOM     10  C   UNL     1       2.703   1.284   0.456  0.00  0.00    +0.000 C 
ATOM     11  H   UNL     1       2.479  -0.070  -1.028  0.00  0.00    +0.000 HD
ATOM     12  H   UNL     1       5.185  -0.216   3.984  0.00  0.00    +0.000 HD
ENDROOT
BRANCH   8  13
ATOM     13  C   UNL     1       4.048   3.714   2.221  0.00  0.00    +0.000 C 
BRANCH  13  14
ATOM     14  C   UNL     1       2.802   4.195   2.935  0.00  0.00    +0.000 A 
ATOM     15  C   UNL     1       2.696   4.101   4.333  0.00  0.00    +0.000 A 
ATOM     16  C   UNL     1       1.554   4.555   4.999  0.00  0.00    +0.000 A 
ATOM     17  C   UNL     1       0.514   5.126   4.273  0.00  0.00    +0.000 A 
ATOM     18 CL   UNL     1      -0.903   5.662   5.086  0.00  0.00    +0.000 Cl
ATOM     19  C   UNL     1       0.614   5.265   2.891  0.00  0.00    +0.000 A 
ATOM     20  C   UNL     1       1.755   4.804   2.223  0.00  0.00    +0.000 A 
ENDBRANCH  13  14
ENDBRANCH   8  13
TORSDOF 2
ENDMDL
MODEL       23
REMARK  Name = ZINC49845659
REMARK  5 active torsions:
REMARK  status: ('A' for Active; 'I' for Inactive)
REMARK    1  A    between atoms: C_1  and  C_2
REMARK    2  A    between atoms: C_5  and  C_6
REMARK    3  A    between atoms: C_10  and  C_11
REMARK    4  A    between atoms: C_11  and  N_12
REMARK    5  A    between atoms: C_16  and  C_17
REMARK                            x       y       z     vdW  Elec       q    Type
REMARK                         _______ _______ _______ _____ _____    ______ ____
ROOT
ATOM      1  C   UNL     1      -3.443  -0.082   0.006  0.00  0.00    +0.000 A 
ATOM      2  N   UNL     1      -4.035   0.596  -1.023  0.00  0.00    +0.000 NA
ATOM      3  C   UNL     1      -5.329   0.487  -0.859  0.00  0.00    +0.000 A 
ATOM      4  N   UNL     1      -5.605  -0.244   0.271  0.00  0.00    +0.000 N 
ATOM      5  C   UNL     1      -4.404  -0.579   0.879  0.00  0.00    +0.000 A 
ATOM      6  C   UNL     1      -6.959  -0.511   0.729  0.00  0.00    +0.000 C 
ATOM      7  C   UNL     1      -8.017  -0.263  -0.347  0.00  0.00    +0.000 C 
ATOM      8  C   UNL     1      -7.755   1.054  -1.078  0.00  0.00    +0.000 C 
ATOM      9  C   UNL     1      -6.388   1.020  -1.776  0.00  0.00    +0.000 C 
ATOM     10  C   UNL     1      -6.012   2.407  -2.297  0.00  0.00    +0.000 C 
ENDROOT
BRANCH   1  15
ATOM     11  C   UNL     1       2.332  -0.175   0.007  0.00  0.00    +0.000 C 
ATOM     12  C   UNL     1       0.831  -0.141   0.066  0.00  0.00    +0.000 A 
ATOM     13  C   UNL     1       0.128   0.965  -0.415  0.00  0.00    +0.000 A 
ATOM     14  C   UNL     1      -1.267   0.969  -0.397  0.00  0.00    +0.000 A 
ATOM     15  C   UNL     1      -1.992  -0.128   0.095  0.00  0.00    +0.000 A 
ATOM     16  C   UNL     1      -1.286  -1.240   0.564  0.00  0.00    +0.000 A 
ATOM     17  C   UNL     1       0.116  -1.239   0.560  0.00  0.00    +0.000 A 
ENDBRANCH   1  15
BRANCH   5  18
ATOM     18  C   UNL     1      -4.302  -1.298   2.163  0.00  0.00    +0.000 C 
BRANCH  18  19
ATOM     19  N   UNL     1      -3.572  -0.501   3.168  0.00  0.00    +0.000 N 
ATOM     20  H   UNL     1      -2.604  -0.336   2.864  0.00  0.00    +0.000 HD
ATOM     21  H   UNL     1      -3.545  -0.967   4.082  0.00  0.00    +0.000 HD
ATOM     22  H   UNL     1      -4.005   0.423   3.283  0.00  0.00    +0.000 HD
ENDBRANCH  18  19
ENDBRANCH   5  18
TORSDOF 3
ENDMDL
MODEL       24
REMARK  Name = ZINC54257519
REMARK  2 active torsions:
REMARK  status: ('A' for Active; 'I' for Inactive)
REMARK    1  A    between atoms: N_5  and  C_6
REMARK    2  A    between atoms: C_6  and  C_7
REMARK                            x       y       z     vdW  Elec       q    Type
REMARK                         _______ _______ _______ _____ _____    ______ ____
ROOT
ATOM      1  C   UNL     1       2.220   0.553  -1.500  0.00  0.00    +0.000 C 
ENDROOT
BRANCH   1   2
ATOM      2  C   UNL     1       3.437  -0.276  -1.893  0.00  0.00    +0.000 A 
ATOM      3  C   UNL     1       3.796  -1.385  -1.105  0.00  0.00    +0.000 A 
ATOM      4  C   UNL     1       4.933  -2.131  -1.389  0.00  0.00    +0.000 A 
ATOM      5  C   UNL     1       5.706  -1.813  -2.499  0.00  0.00    +0.000 A 
ATOM      6  C   UNL     1       5.334  -0.773  -3.361  0.00  0.00    +0.000 A 
ATOM      7  C   UNL     1       6.099  -0.523  -4.512  0.00  0.00    +0.000 A 
ATOM      8  C   UNL     1       5.740   0.478  -5.411  0.00  0.00    +0.000 A 
ATOM      9  C   UNL     1       4.616   1.251  -5.163  0.00  0.00    +0.000 A 
ATOM     10  C   UNL     1       3.853   1.024  -4.013  0.00  0.00    +0.000 A 
ATOM     11  C   UNL     1       4.185   0.010  -3.078  0.00  0.00    +0.000 A 
ENDBRANCH   1   2
BRANCH   1  16
ATOM     12  O   UNL     1       2.870   4.593   1.753  0.00  0.00    +0.000 OA
ATOM     13  C   UNL     1       2.455   3.676   1.043  0.00  0.00    +0.000 C 
ATOM     14  C   UNL     1       3.384   2.639   0.470  0.00  0.00    +0.000 C 
ATOM     15  C   UNL     1       2.959   1.211   0.784  0.00  0.00    +0.000 C 
ATOM     16  N   UNL     1       1.907   0.612  -0.055  0.00  0.00    +0.000 NA
ATOM     17  C   UNL     1       0.597   1.241   0.196  0.00  0.00    +0.000 C 
ATOM     18  C   UNL     1       0.463   2.727  -0.178  0.00  0.00    +0.000 C 
ATOM     19  N   UNL     1       1.131   3.629   0.738  0.00  0.00    +0.000 N 
ATOM     20  H   UNL     1       0.608   4.408   1.119  0.00  0.00    +0.000 HD
ENDBRANCH   1  16
TORSDOF 2
ENDMDL
