MODEL 1
REMARK VINA RESULT:      -8.3      0.000      0.000
REMARK  Name = CHEMBL4098997-73
REMARK  6 active torsions:
REMARK  status: ('A' for Active; 'I' for Inactive)
REMARK    1  A    between atoms: C_1  and  C_2
REMARK    2  A    between atoms: C_2  and  N_3
REMARK    3  A    between atoms: N_3  and  C_4
REMARK    4  A    between atoms: N_3  and  C_13
REMARK    5  A    between atoms: C_4  and  C_5
REMARK    6  A    between atoms: C_5  and  C_6
REMARK                            x       y       z     vdW  Elec       q    Type
REMARK                         _______ _______ _______ _____ _____    ______ ____
ROOT
ATOM      1  C   UNL     1      -0.524  49.391  68.003  0.00  0.00    +0.000 C 
ATOM      2  C   UNL     1       0.259  48.347  68.839  0.00  0.00    +0.000 C 
ATOM      3  C   UNL     1      -0.211  46.910  68.609  0.00  0.00    +0.000 C 
ATOM      4  N   UNL     1      -1.662  46.805  68.768  0.00  0.00    +0.000 N 
ATOM      5  C   UNL     1      -2.178  45.892  69.631  0.00  0.00    +0.000 A 
ATOM      6  N   UNL     1      -1.561  45.205  70.565  0.00  0.00    +0.000 NA
ATOM      7  C   UNL     1      -2.552  44.464  71.128  0.00  0.00    +0.000 A 
ATOM      8  N   UNL     1      -2.251  43.687  72.166  0.00  0.00    +0.000 N 
ATOM      9  N   UNL     1      -3.760  44.638  70.616  0.00  0.00    +0.000 NA
ATOM     10  N   UNL     1      -3.495  45.522  69.640  0.00  0.00    +0.000 N 
ATOM     11  C   UNL     1      -2.470  47.756  68.015  0.00  0.00    +0.000 C 
ATOM     12  C   UNL     1      -2.013  49.172  68.355  0.00  0.00    +0.000 C 
ATOM     13  H   UNL     1      -1.390  43.900  72.644  0.00  0.00    +0.000 HD
ATOM     14  H   UNL     1      -3.019  43.428  72.770  0.00  0.00    +0.000 HD
ATOM     15  H   UNL     1      -4.240  45.812  69.024  0.00  0.00    +0.000 HD
ENDROOT
BRANCH   1  16
ATOM     16  N   UNL     1      -0.239  49.383  66.531  0.00  0.00    +0.000 NA
BRANCH  16  18
ATOM     17  C   UNL     1      -0.192  51.937  66.314  0.00  0.00    +0.000 C 
ATOM     18  C   UNL     1      -0.777  50.597  65.875  0.00  0.00    +0.000 C 
ENDBRANCH  16  18
BRANCH  16  19
ATOM     19  C   UNL     1       1.196  49.156  66.212  0.00  0.00    +0.000 C 
BRANCH  19  20
ATOM     20  C   UNL     1       1.507  48.165  65.072  0.00  0.00    +0.000 C 
BRANCH  20  21
ATOM     21  C   UNL     1       2.081  48.842  63.846  0.00  0.00    +0.000 A 
ATOM     22  C   UNL     1       1.515  50.026  63.352  0.00  0.00    +0.000 A 
ATOM     23  C   UNL     1       2.060  50.660  62.231  0.00  0.00    +0.000 A 
ATOM     24  C   UNL     1       3.173  50.112  61.597  0.00  0.00    +0.000 A 
ATOM     25 BR   UNL     1       3.917  50.976  60.090  0.00  0.00    +0.000 Br
ATOM     26  C   UNL     1       3.742  48.931  62.069  0.00  0.00    +0.000 A 
ATOM     27  C   UNL     1       3.197  48.298  63.189  0.00  0.00    +0.000 A 
ENDBRANCH  20  21
ENDBRANCH  19  20
ENDBRANCH  16  19
ENDBRANCH   1  16
TORSDOF 5
ENDMDL
MODEL 2
REMARK VINA RESULT:      -8.2      1.619      2.116
REMARK  Name = CHEMBL4098997-73
REMARK  6 active torsions:
REMARK  status: ('A' for Active; 'I' for Inactive)
REMARK    1  A    between atoms: C_1  and  C_2
REMARK    2  A    between atoms: C_2  and  N_3
REMARK    3  A    between atoms: N_3  and  C_4
REMARK    4  A    between atoms: N_3  and  C_13
REMARK    5  A    between atoms: C_4  and  C_5
REMARK    6  A    between atoms: C_5  and  C_6
REMARK                            x       y       z     vdW  Elec       q    Type
REMARK                         _______ _______ _______ _____ _____    ______ ____
ROOT
ATOM      1  C   UNL     1      -0.903  48.618  67.955  0.00  0.00    +0.000 C 
ATOM      2  C   UNL     1      -0.108  47.800  69.004  0.00  0.00    +0.000 C 
ATOM      3  C   UNL     1      -0.467  46.313  69.013  0.00  0.00    +0.000 C 
ATOM      4  N   UNL     1      -1.916  46.129  69.116  0.00  0.00    +0.000 N 
ATOM      5  C   UNL     1      -2.424  45.346  70.102  0.00  0.00    +0.000 A 
ATOM      6  N   UNL     1      -1.823  44.882  71.174  0.00  0.00    +0.000 NA
ATOM      7  C   UNL     1      -2.797  44.180  71.812  0.00  0.00    +0.000 A 
ATOM      8  N   UNL     1      -2.512  43.622  72.986  0.00  0.00    +0.000 N 
ATOM      9  N   UNL     1      -3.980  44.169  71.216  0.00  0.00    +0.000 NA
ATOM     10  N   UNL     1      -3.712  44.885  70.112  0.00  0.00    +0.000 N 
ATOM     11  C   UNL     1      -2.735  46.869  68.164  0.00  0.00    +0.000 C 
ATOM     12  C   UNL     1      -2.395  48.353  68.267  0.00  0.00    +0.000 C 
ATOM     13  H   UNL     1      -1.698  43.981  73.461  0.00  0.00    +0.000 HD
ATOM     14  H   UNL     1      -3.297  43.417  73.587  0.00  0.00    +0.000 HD
ATOM     15  H   UNL     1      -4.434  45.005  69.417  0.00  0.00    +0.000 HD
ENDROOT
BRANCH   1  16
ATOM     16  N   UNL     1      -0.527  48.373  66.526  0.00  0.00    +0.000 NA
BRANCH  16  18
ATOM     17  C   UNL     1      -2.158  48.224  64.553  0.00  0.00    +0.000 C 
ATOM     18  C   UNL     1      -1.446  49.077  65.601  0.00  0.00    +0.000 C 
ENDBRANCH  16  18
BRANCH  16  19
ATOM     19  C   UNL     1       0.902  48.666  66.236  0.00  0.00    +0.000 C 
BRANCH  19  20
ATOM     20  C   UNL     1       1.218  49.314  64.872  0.00  0.00    +0.000 C 
BRANCH  20  21
ATOM     21  C   UNL     1       2.161  48.480  64.031  0.00  0.00    +0.000 A 
ATOM     22  C   UNL     1       2.356  47.120  64.310  0.00  0.00    +0.000 A 
ATOM     23  C   UNL     1       3.212  46.348  63.518  0.00  0.00    +0.000 A 
ATOM     24  C   UNL     1       3.879  46.933  62.444  0.00  0.00    +0.000 A 
ATOM     25 BR   UNL     1       5.026  45.886  61.367  0.00  0.00    +0.000 Br
ATOM     26  C   UNL     1       3.703  48.285  62.159  0.00  0.00    +0.000 A 
ATOM     27  C   UNL     1       2.848  49.056  62.950  0.00  0.00    +0.000 A 
ENDBRANCH  20  21
ENDBRANCH  19  20
ENDBRANCH  16  19
ENDBRANCH   1  16
TORSDOF 5
ENDMDL
MODEL 3
REMARK VINA RESULT:      -8.1      5.041      7.283
REMARK  Name = CHEMBL4098997-73
REMARK  6 active torsions:
REMARK  status: ('A' for Active; 'I' for Inactive)
REMARK    1  A    between atoms: C_1  and  C_2
REMARK    2  A    between atoms: C_2  and  N_3
REMARK    3  A    between atoms: N_3  and  C_4
REMARK    4  A    between atoms: N_3  and  C_13
REMARK    5  A    between atoms: C_4  and  C_5
REMARK    6  A    between atoms: C_5  and  C_6
REMARK                            x       y       z     vdW  Elec       q    Type
REMARK                         _______ _______ _______ _____ _____    ______ ____
ROOT
ATOM      1  C   UNL     1      -2.067  49.711  67.409  0.00  0.00    +0.000 C 
ATOM      2  C   UNL     1      -0.913  48.754  67.018  0.00  0.00    +0.000 C 
ATOM      3  C   UNL     1      -0.704  47.614  68.016  0.00  0.00    +0.000 C 
ATOM      4  N   UNL     1      -0.587  48.132  69.380  0.00  0.00    +0.000 N 
ATOM      5  C   UNL     1       0.493  47.799  70.133  0.00  0.00    +0.000 A 
ATOM      6  N   UNL     1       1.621  47.246  69.751  0.00  0.00    +0.000 NA
ATOM      7  C   UNL     1       2.342  47.156  70.900  0.00  0.00    +0.000 A 
ATOM      8  N   UNL     1       3.582  46.678  70.835  0.00  0.00    +0.000 N 
ATOM      9  N   UNL     1       1.747  47.618  71.988  0.00  0.00    +0.000 NA
ATOM     10  N   UNL     1       0.558  47.988  71.487  0.00  0.00    +0.000 N 
ATOM     11  C   UNL     1      -1.635  49.044  69.823  0.00  0.00    +0.000 C 
ATOM     12  C   UNL     1      -1.731  50.203  68.836  0.00  0.00    +0.000 C 
ATOM     13  H   UNL     1       4.009  46.677  69.922  0.00  0.00    +0.000 HD
ATOM     14  H   UNL     1       4.202  46.933  71.592  0.00  0.00    +0.000 HD
ATOM     15  H   UNL     1      -0.151  48.342  72.112  0.00  0.00    +0.000 HD
ENDROOT
BRANCH   1  16
ATOM     16  N   UNL     1      -3.448  49.147  67.269  0.00  0.00    +0.000 NA
BRANCH  16  18
ATOM     17  C   UNL     1      -3.990  51.268  65.934  0.00  0.00    +0.000 C 
ATOM     18  C   UNL     1      -4.429  50.207  66.941  0.00  0.00    +0.000 C 
ENDBRANCH  16  18
BRANCH  16  19
ATOM     19  C   UNL     1      -3.520  47.998  66.328  0.00  0.00    +0.000 C 
BRANCH  19  20
ATOM     20  C   UNL     1      -4.866  47.250  66.242  0.00  0.00    +0.000 C 
BRANCH  20  21
ATOM     21  C   UNL     1      -5.052  46.246  67.360  0.00  0.00    +0.000 A 
ATOM     22  C   UNL     1      -4.033  46.020  68.296  0.00  0.00    +0.000 A 
ATOM     23  C   UNL     1      -4.217  45.107  69.339  0.00  0.00    +0.000 A 
ATOM     24  C   UNL     1      -5.419  44.413  69.450  0.00  0.00    +0.000 A 
ATOM     25 BR   UNL     1      -5.671  43.189  70.867  0.00  0.00    +0.000 Br
ATOM     26  C   UNL     1      -6.439  44.619  68.523  0.00  0.00    +0.000 A 
ATOM     27  C   UNL     1      -6.255  45.531  67.481  0.00  0.00    +0.000 A 
ENDBRANCH  20  21
ENDBRANCH  19  20
ENDBRANCH  16  19
ENDBRANCH   1  16
TORSDOF 5
ENDMDL
MODEL 4
REMARK VINA RESULT:      -8.0      4.879      7.523
REMARK  Name = CHEMBL4098997-73
REMARK  6 active torsions:
REMARK  status: ('A' for Active; 'I' for Inactive)
REMARK    1  A    between atoms: C_1  and  C_2
REMARK    2  A    between atoms: C_2  and  N_3
REMARK    3  A    between atoms: N_3  and  C_4
REMARK    4  A    between atoms: N_3  and  C_13
REMARK    5  A    between atoms: C_4  and  C_5
REMARK    6  A    between atoms: C_5  and  C_6
REMARK                            x       y       z     vdW  Elec       q    Type
REMARK                         _______ _______ _______ _____ _____    ______ ____
ROOT
ATOM      1  C   UNL     1      -0.872  47.161  69.151  0.00  0.00    +0.000 C 
ATOM      2  C   UNL     1      -0.766  47.471  70.666  0.00  0.00    +0.000 C 
ATOM      3  C   UNL     1       0.522  48.201  71.047  0.00  0.00    +0.000 C 
ATOM      4  N   UNL     1       1.694  47.500  70.519  0.00  0.00    +0.000 N 
ATOM      5  C   UNL     1       2.698  47.145  71.361  0.00  0.00    +0.000 A 
ATOM      6  N   UNL     1       2.699  47.120  72.674  0.00  0.00    +0.000 NA
ATOM      7  C   UNL     1       3.944  46.675  72.988  0.00  0.00    +0.000 A 
ATOM      8  N   UNL     1       4.246  46.485  74.270  0.00  0.00    +0.000 N 
ATOM      9  N   UNL     1       4.736  46.412  71.959  0.00  0.00    +0.000 NA
ATOM     10  N   UNL     1       3.938  46.753  70.935  0.00  0.00    +0.000 N 
ATOM     11  C   UNL     1       1.669  47.168  69.100  0.00  0.00    +0.000 C 
ATOM     12  C   UNL     1       0.407  46.365  68.801  0.00  0.00    +0.000 C 
ATOM     13  H   UNL     1       3.465  46.409  74.902  0.00  0.00    +0.000 HD
ATOM     14  H   UNL     1       5.009  45.850  74.462  0.00  0.00    +0.000 HD
ATOM     15  H   UNL     1       4.300  46.707  69.993  0.00  0.00    +0.000 HD
ENDROOT
BRANCH   1  16
ATOM     16  N   UNL     1      -1.114  48.345  68.265  0.00  0.00    +0.000 NA
BRANCH  16  18
ATOM     17  C   UNL     1       0.134  48.941  66.107  0.00  0.00    +0.000 C 
ATOM     18  C   UNL     1      -0.832  48.020  66.848  0.00  0.00    +0.000 C 
ENDBRANCH  16  18
BRANCH  16  19
ATOM     19  C   UNL     1      -2.459  48.952  68.451  0.00  0.00    +0.000 C 
BRANCH  19  20
ATOM     20  C   UNL     1      -3.545  48.567  67.426  0.00  0.00    +0.000 C 
BRANCH  20  21
ATOM     21  C   UNL     1      -4.524  47.545  67.964  0.00  0.00    +0.000 A 
ATOM     22  C   UNL     1      -5.842  47.911  68.273  0.00  0.00    +0.000 A 
ATOM     23  C   UNL     1      -6.749  46.959  68.751  0.00  0.00    +0.000 A 
ATOM     24  C   UNL     1      -6.342  45.638  68.924  0.00  0.00    +0.000 A 
ATOM     25 BR   UNL     1      -7.573  44.351  69.557  0.00  0.00    +0.000 Br
ATOM     26  C   UNL     1      -5.034  45.261  68.630  0.00  0.00    +0.000 A 
ATOM     27  C   UNL     1      -4.128  46.211  68.154  0.00  0.00    +0.000 A 
ENDBRANCH  20  21
ENDBRANCH  19  20
ENDBRANCH  16  19
ENDBRANCH   1  16
TORSDOF 5
ENDMDL
MODEL 5
REMARK VINA RESULT:      -8.0      4.409      8.884
REMARK  Name = CHEMBL4098997-73
REMARK  6 active torsions:
REMARK  status: ('A' for Active; 'I' for Inactive)
REMARK    1  A    between atoms: C_1  and  C_2
REMARK    2  A    between atoms: C_2  and  N_3
REMARK    3  A    between atoms: N_3  and  C_4
REMARK    4  A    between atoms: N_3  and  C_13
REMARK    5  A    between atoms: C_4  and  C_5
REMARK    6  A    between atoms: C_5  and  C_6
REMARK                            x       y       z     vdW  Elec       q    Type
REMARK                         _______ _______ _______ _____ _____    ______ ____
ROOT
ATOM      1  C   UNL     1      -0.053  48.468  68.034  0.00  0.00    +0.000 C 
ATOM      2  C   UNL     1      -0.588  49.464  66.976  0.00  0.00    +0.000 C 
ATOM      3  C   UNL     1      -0.499  48.935  65.543  0.00  0.00    +0.000 C 
ATOM      4  N   UNL     1       0.852  48.453  65.250  0.00  0.00    +0.000 N 
ATOM      5  C   UNL     1       1.515  48.934  64.167  0.00  0.00    +0.000 A 
ATOM      6  N   UNL     1       1.226  49.978  63.425  0.00  0.00    +0.000 NA
ATOM      7  C   UNL     1       2.223  50.003  62.500  0.00  0.00    +0.000 A 
ATOM      8  N   UNL     1       2.246  50.998  61.618  0.00  0.00    +0.000 N 
ATOM      9  N   UNL     1       3.128  49.042  62.608  0.00  0.00    +0.000 NA
ATOM     10  N   UNL     1       2.640  48.351  63.650  0.00  0.00    +0.000 N 
ATOM     11  C   UNL     1       1.428  47.513  66.203  0.00  0.00    +0.000 C 
ATOM     12  C   UNL     1       1.393  48.135  67.596  0.00  0.00    +0.000 C 
ATOM     13  H   UNL     1       1.703  51.814  61.856  0.00  0.00    +0.000 HD
ATOM     14  H   UNL     1       3.138  51.195  61.187  0.00  0.00    +0.000 HD
ATOM     15  H   UNL     1       3.106  47.504  63.940  0.00  0.00    +0.000 HD
ENDROOT
BRANCH   1  16
ATOM     16  N   UNL     1      -0.908  47.262  68.276  0.00  0.00    +0.000 NA
BRANCH  16  18
ATOM     17  C   UNL     1      -0.660  46.788  70.784  0.00  0.00    +0.000 C 
ATOM     18  C   UNL     1      -0.338  46.404  69.341  0.00  0.00    +0.000 C 
ENDBRANCH  16  18
BRANCH  16  19
ATOM     19  C   UNL     1      -2.337  47.595  68.522  0.00  0.00    +0.000 C 
BRANCH  19  20
ATOM     20  C   UNL     1      -3.373  46.966  67.569  0.00  0.00    +0.000 C 
BRANCH  20  21
ATOM     21  C   UNL     1      -4.264  45.953  68.256  0.00  0.00    +0.000 A 
ATOM     22  C   UNL     1      -5.547  45.677  67.763  0.00  0.00    +0.000 A 
ATOM     23  C   UNL     1      -6.359  44.725  68.388  0.00  0.00    +0.000 A 
ATOM     24  C   UNL     1      -5.892  44.046  69.511  0.00  0.00    +0.000 A 
ATOM     25 BR   UNL     1      -6.984  42.750  70.347  0.00  0.00    +0.000 Br
ATOM     26  C   UNL     1      -4.623  44.314  70.018  0.00  0.00    +0.000 A 
ATOM     27  C   UNL     1      -3.812  45.265  69.394  0.00  0.00    +0.000 A 
ENDBRANCH  20  21
ENDBRANCH  19  20
ENDBRANCH  16  19
ENDBRANCH   1  16
TORSDOF 5
ENDMDL
MODEL 6
REMARK VINA RESULT:      -8.0      4.909      6.835
REMARK  Name = CHEMBL4098997-73
REMARK  6 active torsions:
REMARK  status: ('A' for Active; 'I' for Inactive)
REMARK    1  A    between atoms: C_1  and  C_2
REMARK    2  A    between atoms: C_2  and  N_3
REMARK    3  A    between atoms: N_3  and  C_4
REMARK    4  A    between atoms: N_3  and  C_13
REMARK    5  A    between atoms: C_4  and  C_5
REMARK    6  A    between atoms: C_5  and  C_6
REMARK                            x       y       z     vdW  Elec       q    Type
REMARK                         _______ _______ _______ _____ _____    ______ ____
ROOT
ATOM      1  C   UNL     1      -2.408  44.581  70.554  0.00  0.00    +0.000 C 
ATOM      2  C   UNL     1      -3.764  43.972  70.118  0.00  0.00    +0.000 C 
ATOM      3  C   UNL     1      -4.926  44.355  71.036  0.00  0.00    +0.000 C 
ATOM      4  N   UNL     1      -4.594  44.081  72.436  0.00  0.00    +0.000 N 
ATOM      5  C   UNL     1      -5.425  43.310  73.184  0.00  0.00    +0.000 A 
ATOM      6  N   UNL     1      -6.411  42.540  72.784  0.00  0.00    +0.000 NA
ATOM      7  C   UNL     1      -6.884  41.997  73.937  0.00  0.00    +0.000 A 
ATOM      8  N   UNL     1      -7.872  41.109  73.862  0.00  0.00    +0.000 N 
ATOM      9  N   UNL     1      -6.261  42.370  75.044  0.00  0.00    +0.000 NA
ATOM     10  N   UNL     1      -5.361  43.233  74.548  0.00  0.00    +0.000 N 
ATOM     11  C   UNL     1      -3.330  44.620  72.922  0.00  0.00    +0.000 C 
ATOM     12  C   UNL     1      -2.203  44.129  72.019  0.00  0.00    +0.000 C 
ATOM     13  H   UNL     1      -8.019  40.685  72.959  0.00  0.00    +0.000 HD
ATOM     14  H   UNL     1      -7.971  40.480  74.646  0.00  0.00    +0.000 HD
ATOM     15  H   UNL     1      -4.757  43.734  75.183  0.00  0.00    +0.000 HD
ENDROOT
BRANCH   1  16
ATOM     16  N   UNL     1      -2.269  46.059  70.349  0.00  0.00    +0.000 NA
BRANCH  16  18
ATOM     17  C   UNL     1       0.220  46.632  70.123  0.00  0.00    +0.000 C 
ATOM     18  C   UNL     1      -1.037  46.576  70.989  0.00  0.00    +0.000 C 
ENDBRANCH  16  18
BRANCH  16  19
ATOM     19  C   UNL     1      -2.380  46.466  68.922  0.00  0.00    +0.000 C 
BRANCH  19  20
ATOM     20  C   UNL     1      -3.558  47.390  68.551  0.00  0.00    +0.000 C 
BRANCH  20  21
ATOM     21  C   UNL     1      -3.201  48.859  68.632  0.00  0.00    +0.000 A 
ATOM     22  C   UNL     1      -4.203  49.838  68.674  0.00  0.00    +0.000 A 
ATOM     23  C   UNL     1      -3.869  51.193  68.770  0.00  0.00    +0.000 A 
ATOM     24  C   UNL     1      -2.531  51.575  68.822  0.00  0.00    +0.000 A 
ATOM     25 BR   UNL     1      -2.081  53.405  68.965  0.00  0.00    +0.000 Br
ATOM     26  C   UNL     1      -1.522  50.616  68.773  0.00  0.00    +0.000 A 
ATOM     27  C   UNL     1      -1.857  49.262  68.676  0.00  0.00    +0.000 A 
ENDBRANCH  20  21
ENDBRANCH  19  20
ENDBRANCH  16  19
ENDBRANCH   1  16
TORSDOF 5
ENDMDL
MODEL 7
REMARK VINA RESULT:      -7.9      2.694      3.475
REMARK  Name = CHEMBL4098997-73
REMARK  6 active torsions:
REMARK  status: ('A' for Active; 'I' for Inactive)
REMARK    1  A    between atoms: C_1  and  C_2
REMARK    2  A    between atoms: C_2  and  N_3
REMARK    3  A    between atoms: N_3  and  C_4
REMARK    4  A    between atoms: N_3  and  C_13
REMARK    5  A    between atoms: C_4  and  C_5
REMARK    6  A    between atoms: C_5  and  C_6
REMARK                            x       y       z     vdW  Elec       q    Type
REMARK                         _______ _______ _______ _____ _____    ______ ____
ROOT
ATOM      1  C   UNL     1       0.139  50.444  66.040  0.00  0.00    +0.000 C 
ATOM      2  C   UNL     1       1.270  49.389  66.119  0.00  0.00    +0.000 C 
ATOM      3  C   UNL     1       0.900  48.163  66.956  0.00  0.00    +0.000 C 
ATOM      4  N   UNL     1       0.392  48.564  68.269  0.00  0.00    +0.000 N 
ATOM      5  C   UNL     1       0.958  48.052  69.392  0.00  0.00    +0.000 A 
ATOM      6  N   UNL     1       2.091  47.399  69.515  0.00  0.00    +0.000 NA
ATOM      7  C   UNL     1       2.172  47.142  70.847  0.00  0.00    +0.000 A 
ATOM      8  N   UNL     1       3.257  46.527  71.311  0.00  0.00    +0.000 N 
ATOM      9  N   UNL     1       1.165  47.591  71.580  0.00  0.00    +0.000 NA
ATOM     10  N   UNL     1       0.386  48.134  70.632  0.00  0.00    +0.000 N 
ATOM     11  C   UNL     1      -0.675  49.558  68.278  0.00  0.00    +0.000 C 
ATOM     12  C   UNL     1      -0.210  50.789  67.507  0.00  0.00    +0.000 C 
ATOM     13  H   UNL     1       4.065  46.541  70.708  0.00  0.00    +0.000 HD
ATOM     14  H   UNL     1       3.459  46.652  72.293  0.00  0.00    +0.000 HD
ATOM     15  H   UNL     1      -0.509  48.522  70.892  0.00  0.00    +0.000 HD
ENDROOT
BRANCH   1  16
ATOM     16  N   UNL     1      -1.046  50.058  65.207  0.00  0.00    +0.000 NA
BRANCH  16  18
ATOM     17  C   UNL     1      -3.438  50.807  64.668  0.00  0.00    +0.000 C 
ATOM     18  C   UNL     1      -2.266  50.773  65.647  0.00  0.00    +0.000 C 
ENDBRANCH  16  18
BRANCH  16  19
ATOM     19  C   UNL     1      -0.805  50.195  63.746  0.00  0.00    +0.000 C 
BRANCH  19  20
ATOM     20  C   UNL     1      -0.037  51.449  63.280  0.00  0.00    +0.000 C 
BRANCH  20  21
ATOM     21  C   UNL     1       1.208  51.113  62.486  0.00  0.00    +0.000 A 
ATOM     22  C   UNL     1       1.965  49.973  62.790  0.00  0.00    +0.000 A 
ATOM     23  C   UNL     1       3.102  49.656  62.041  0.00  0.00    +0.000 A 
ATOM     24  C   UNL     1       3.491  50.479  60.986  0.00  0.00    +0.000 A 
ATOM     25 BR   UNL     1       5.021  50.042  59.967  0.00  0.00    +0.000 Br
ATOM     26  C   UNL     1       2.755  51.620  60.677  0.00  0.00    +0.000 A 
ATOM     27  C   UNL     1       1.618  51.937  61.426  0.00  0.00    +0.000 A 
ENDBRANCH  20  21
ENDBRANCH  19  20
ENDBRANCH  16  19
ENDBRANCH   1  16
TORSDOF 5
ENDMDL
MODEL 8
REMARK VINA RESULT:      -7.9      4.883      8.373
REMARK  Name = CHEMBL4098997-73
REMARK  6 active torsions:
REMARK  status: ('A' for Active; 'I' for Inactive)
REMARK    1  A    between atoms: C_1  and  C_2
REMARK    2  A    between atoms: C_2  and  N_3
REMARK    3  A    between atoms: N_3  and  C_4
REMARK    4  A    between atoms: N_3  and  C_13
REMARK    5  A    between atoms: C_4  and  C_5
REMARK    6  A    between atoms: C_5  and  C_6
REMARK                            x       y       z     vdW  Elec       q    Type
REMARK                         _______ _______ _______ _____ _____    ______ ____
ROOT
ATOM      1  C   UNL     1      -1.483  49.689  68.842  0.00  0.00    +0.000 C 
ATOM      2  C   UNL     1      -3.017  49.749  68.630  0.00  0.00    +0.000 C 
ATOM      3  C   UNL     1      -3.447  49.390  67.206  0.00  0.00    +0.000 C 
ATOM      4  N   UNL     1      -2.698  50.175  66.223  0.00  0.00    +0.000 N 
ATOM      5  C   UNL     1      -3.370  50.899  65.291  0.00  0.00    +0.000 A 
ATOM      6  N   UNL     1      -4.645  51.214  65.258  0.00  0.00    +0.000 NA
ATOM      7  C   UNL     1      -4.765  51.954  64.124  0.00  0.00    +0.000 A 
ATOM      8  N   UNL     1      -5.952  52.480  63.832  0.00  0.00    +0.000 N 
ATOM      9  N   UNL     1      -3.648  52.134  63.436  0.00  0.00    +0.000 NA
ATOM     10  N   UNL     1      -2.780  51.424  64.174  0.00  0.00    +0.000 N 
ATOM     11  C   UNL     1      -1.247  50.172  66.358  0.00  0.00    +0.000 C 
ATOM     12  C   UNL     1      -0.880  50.625  67.768  0.00  0.00    +0.000 C 
ATOM     13  H   UNL     1      -6.610  52.537  64.594  0.00  0.00    +0.000 HD
ATOM     14  H   UNL     1      -5.949  53.279  63.214  0.00  0.00    +0.000 HD
ATOM     15  H   UNL     1      -1.826  51.331  63.857  0.00  0.00    +0.000 HD
ENDROOT
BRANCH   1  16
ATOM     16  N   UNL     1      -0.887  48.314  68.856  0.00  0.00    +0.000 NA
BRANCH  16  18
ATOM     17  C   UNL     1       1.153  47.918  70.357  0.00  0.00    +0.000 C 
ATOM     18  C   UNL     1       0.585  48.370  69.014  0.00  0.00    +0.000 C 
ENDBRANCH  16  18
BRANCH  16  19
ATOM     19  C   UNL     1      -1.528  47.406  69.844  0.00  0.00    +0.000 C 
BRANCH  19  20
ATOM     20  C   UNL     1      -1.682  45.927  69.433  0.00  0.00    +0.000 C 
BRANCH  20  21
ATOM     21  C   UNL     1      -3.128  45.511  69.268  0.00  0.00    +0.000 A 
ATOM     22  C   UNL     1      -3.915  46.050  68.239  0.00  0.00    +0.000 A 
ATOM     23  C   UNL     1      -5.244  45.648  68.077  0.00  0.00    +0.000 A 
ATOM     24  C   UNL     1      -5.795  44.706  68.944  0.00  0.00    +0.000 A 
ATOM     25 BR   UNL     1      -7.587  44.154  68.716  0.00  0.00    +0.000 Br
ATOM     26  C   UNL     1      -5.030  44.167  69.976  0.00  0.00    +0.000 A 
ATOM     27  C   UNL     1      -3.702  44.570  70.138  0.00  0.00    +0.000 A 
ENDBRANCH  20  21
ENDBRANCH  19  20
ENDBRANCH  16  19
ENDBRANCH   1  16
TORSDOF 5
ENDMDL
MODEL 9
REMARK VINA RESULT:      -7.5      1.551      1.967
REMARK  Name = CHEMBL4098997-73
REMARK  6 active torsions:
REMARK  status: ('A' for Active; 'I' for Inactive)
REMARK    1  A    between atoms: C_1  and  C_2
REMARK    2  A    between atoms: C_2  and  N_3
REMARK    3  A    between atoms: N_3  and  C_4
REMARK    4  A    between atoms: N_3  and  C_13
REMARK    5  A    between atoms: C_4  and  C_5
REMARK    6  A    between atoms: C_5  and  C_6
REMARK                            x       y       z     vdW  Elec       q    Type
REMARK                         _______ _______ _______ _____ _____    ______ ____
ROOT
ATOM      1  C   UNL     1      -2.165  49.199  68.620  0.00  0.00    +0.000 C 
ATOM      2  C   UNL     1      -1.653  47.977  69.422  0.00  0.00    +0.000 C 
ATOM      3  C   UNL     1      -2.056  46.635  68.807  0.00  0.00    +0.000 C 
ATOM      4  N   UNL     1      -3.496  46.593  68.548  0.00  0.00    +0.000 N 
ATOM      5  C   UNL     1      -4.238  45.573  69.052  0.00  0.00    +0.000 A 
ATOM      6  N   UNL     1      -3.909  44.694  69.969  0.00  0.00    +0.000 NA
ATOM      7  C   UNL     1      -5.023  43.926  70.096  0.00  0.00    +0.000 A 
ATOM      8  N   UNL     1      -5.028  42.958  71.009  0.00  0.00    +0.000 N 
ATOM      9  N   UNL     1      -6.042  44.263  69.320  0.00  0.00    +0.000 NA
ATOM     10  N   UNL     1      -5.510  45.289  68.637  0.00  0.00    +0.000 N 
ATOM     11  C   UNL     1      -4.055  47.712  67.800  0.00  0.00    +0.000 C 
ATOM     12  C   UNL     1      -3.697  49.013  68.512  0.00  0.00    +0.000 C 
ATOM     13  H   UNL     1      -4.330  43.029  71.732  0.00  0.00    +0.000 HD
ATOM     14  H   UNL     1      -5.934  42.643  71.325  0.00  0.00    +0.000 HD
ATOM     15  H   UNL     1      -6.054  45.730  67.910  0.00  0.00    +0.000 HD
ENDROOT
BRANCH   1  16
ATOM     16  N   UNL     1      -1.487  49.438  67.305  0.00  0.00    +0.000 NA
BRANCH  16  18
ATOM     17  C   UNL     1      -0.656  51.850  67.054  0.00  0.00    +0.000 C 
ATOM     18  C   UNL     1      -1.747  50.809  66.809  0.00  0.00    +0.000 C 
ENDBRANCH  16  18
BRANCH  16  19
ATOM     19  C   UNL     1      -0.037  49.108  67.324  0.00  0.00    +0.000 C 
BRANCH  19  20
ATOM     20  C   UNL     1       0.414  47.903  66.473  0.00  0.00    +0.000 C 
BRANCH  20  21
ATOM     21  C   UNL     1       1.131  48.315  65.205  0.00  0.00    +0.000 A 
ATOM     22  C   UNL     1       0.914  49.580  64.640  0.00  0.00    +0.000 A 
ATOM     23  C   UNL     1       1.593  49.965  63.479  0.00  0.00    +0.000 A 
ATOM     24  C   UNL     1       2.491  49.086  62.877  0.00  0.00    +0.000 A 
ATOM     25 BR   UNL     1       3.417  49.613  61.316  0.00  0.00    +0.000 Br
ATOM     26  C   UNL     1       2.711  47.823  63.420  0.00  0.00    +0.000 A 
ATOM     27  C   UNL     1       2.032  47.439  64.579  0.00  0.00    +0.000 A 
ENDBRANCH  20  21
ENDBRANCH  19  20
ENDBRANCH  16  19
ENDBRANCH   1  16
TORSDOF 5
ENDMDL
