MODEL 1
REMARK VINA RESULT:      -9.3      0.000      0.000
REMARK  Name = CHEMBL4082060-8.7
REMARK  6 active torsions:
REMARK  status: ('A' for Active; 'I' for Inactive)
REMARK    1  A    between atoms: C_9  and  N_10
REMARK    2  A    between atoms: N_10  and  C_11
REMARK    3  A    between atoms: N_10  and  C_20
REMARK    4  A    between atoms: C_11  and  C_12
REMARK    5  A    between atoms: C_12  and  C_13
REMARK    6  A    between atoms: C_20  and  C_21
REMARK                            x       y       z     vdW  Elec       q    Type
REMARK                         _______ _______ _______ _____ _____    ______ ____
ROOT
ATOM      1  N   UNL     1      -0.817  48.056  68.230  0.00  0.00    +0.000 NA
ENDROOT
BRANCH   1  10
ATOM      2  N   UNL     1       4.334  48.413  61.720  0.00  0.00    +0.000 N 
ATOM      3  C   UNL     1       3.303  48.943  62.373  0.00  0.00    +0.000 A 
ATOM      4  N   UNL     1       2.683  50.078  62.086  0.00  0.00    +0.000 NA
ATOM      5  N   UNL     1       1.764  50.122  63.066  0.00  0.00    +0.000 N 
ATOM      6  C   UNL     1       1.867  49.040  63.897  0.00  0.00    +0.000 A 
ATOM      7  N   UNL     1       1.105  48.841  64.994  0.00  0.00    +0.000 N 
ATOM      8  C   UNL     1       0.328  49.902  65.622  0.00  0.00    +0.000 C 
ATOM      9  C   UNL     1       0.556  49.946  67.130  0.00  0.00    +0.000 C 
ATOM     10  C   UNL     1       0.534  48.577  67.849  0.00  0.00    +0.000 C 
ATOM     11  C   UNL     1       1.486  47.634  67.091  0.00  0.00    +0.000 C 
ATOM     12  C   UNL     1       1.173  47.519  65.610  0.00  0.00    +0.000 C 
ATOM     13  N   UNL     1       2.815  48.259  63.433  0.00  0.00    +0.000 NA
ATOM     14  H   UNL     1       4.496  48.749  60.785  0.00  0.00    +0.000 HD
ATOM     15  H   UNL     1       4.494  47.426  61.859  0.00  0.00    +0.000 HD
ATOM     16  H   UNL     1       1.106  50.887  63.102  0.00  0.00    +0.000 HD
ENDBRANCH   1  10
BRANCH   1  17
ATOM     17  C   UNL     1      -0.852  46.603  68.496  0.00  0.00    +0.000 C 
BRANCH  17  18
ATOM     18  C   UNL     1      -1.431  46.075  69.824  0.00  0.00    +0.000 C 
BRANCH  18  19
ATOM     19  C   UNL     1      -2.817  45.505  69.566  0.00  0.00    +0.000 A 
ATOM     20  C   UNL     1      -3.611  46.008  68.522  0.00  0.00    +0.000 A 
ATOM     21  C   UNL     1      -4.906  45.524  68.317  0.00  0.00    +0.000 A 
ATOM     22  C   UNL     1      -5.417  44.541  69.162  0.00  0.00    +0.000 A 
ATOM     23 CL   UNL     1      -7.006  43.933  68.904  0.00  0.00    +0.000 Cl
ATOM     24  C   UNL     1      -4.650  44.049  70.216  0.00  0.00    +0.000 A 
ATOM     25  C   UNL     1      -3.355  44.533  70.420  0.00  0.00    +0.000 A 
ENDBRANCH  18  19
ENDBRANCH  17  18
ENDBRANCH   1  17
BRANCH   1  26
ATOM     26  C   UNL     1      -1.382  48.772  69.395  0.00  0.00    +0.000 C 
BRANCH  26  27
ATOM     27  C   UNL     1      -2.531  49.775  69.151  0.00  0.00    +0.000 C 
ATOM     28  C   UNL     1      -3.126  49.463  67.761  0.00  0.00    +0.000 C 
ATOM     29  C   UNL     1      -4.157  50.487  67.312  0.00  0.00    +0.000 C 
ATOM     30  C   UNL     1      -3.572  51.891  67.346  0.00  0.00    +0.000 C 
ATOM     31  C   UNL     1      -3.082  52.237  68.747  0.00  0.00    +0.000 C 
ATOM     32  C   UNL     1      -2.046  51.232  69.248  0.00  0.00    +0.000 C 
ENDBRANCH  26  27
ENDBRANCH   1  26
TORSDOF 6
ENDMDL
MODEL 2
REMARK VINA RESULT:      -9.2      4.465      8.240
REMARK  Name = CHEMBL4082060-8.7
REMARK  6 active torsions:
REMARK  status: ('A' for Active; 'I' for Inactive)
REMARK    1  A    between atoms: C_9  and  N_10
REMARK    2  A    between atoms: N_10  and  C_11
REMARK    3  A    between atoms: N_10  and  C_20
REMARK    4  A    between atoms: C_11  and  C_12
REMARK    5  A    between atoms: C_12  and  C_13
REMARK    6  A    between atoms: C_20  and  C_21
REMARK                            x       y       z     vdW  Elec       q    Type
REMARK                         _______ _______ _______ _____ _____    ______ ____
ROOT
ATOM      1  N   UNL     1      -0.615  48.486  66.037  0.00  0.00    +0.000 NA
ENDROOT
BRANCH   1  10
ATOM      2  N   UNL     1      -8.434  50.479  64.053  0.00  0.00    +0.000 N 
ATOM      3  C   UNL     1      -7.549  50.198  65.006  0.00  0.00    +0.000 A 
ATOM      4  N   UNL     1      -7.748  50.255  66.314  0.00  0.00    +0.000 NA
ATOM      5  N   UNL     1      -6.536  49.899  66.773  0.00  0.00    +0.000 N 
ATOM      6  C   UNL     1      -5.665  49.655  65.747  0.00  0.00    +0.000 A 
ATOM      7  N   UNL     1      -4.366  49.324  65.908  0.00  0.00    +0.000 N 
ATOM      8  C   UNL     1      -3.646  49.521  67.160  0.00  0.00    +0.000 C 
ATOM      9  C   UNL     1      -2.308  50.218  66.932  0.00  0.00    +0.000 C 
ATOM     10  C   UNL     1      -1.469  49.683  65.750  0.00  0.00    +0.000 C 
ATOM     11  C   UNL     1      -2.380  49.641  64.509  0.00  0.00    +0.000 C 
ATOM     12  C   UNL     1      -3.657  48.848  64.722  0.00  0.00    +0.000 C 
ATOM     13  N   UNL     1      -6.317  49.797  64.616  0.00  0.00    +0.000 NA
ATOM     14  H   UNL     1      -9.404  50.480  64.325  0.00  0.00    +0.000 HD
ATOM     15  H   UNL     1      -8.242  50.103  63.137  0.00  0.00    +0.000 HD
ATOM     16  H   UNL     1      -6.378  49.829  67.768  0.00  0.00    +0.000 HD
ENDBRANCH   1  10
BRANCH   1  17
ATOM     17  C   UNL     1       0.036  47.907  64.844  0.00  0.00    +0.000 C 
BRANCH  17  18
ATOM     18  C   UNL     1       1.568  47.738  64.806  0.00  0.00    +0.000 C 
BRANCH  18  19
ATOM     19  C   UNL     1       2.137  48.642  63.724  0.00  0.00    +0.000 A 
ATOM     20  C   UNL     1       1.489  49.842  63.384  0.00  0.00    +0.000 A 
ATOM     21  C   UNL     1       1.981  50.648  62.354  0.00  0.00    +0.000 A 
ATOM     22  C   UNL     1       3.116  50.253  61.650  0.00  0.00    +0.000 A 
ATOM     23 CL   UNL     1       3.730  51.250  60.389  0.00  0.00    +0.000 Cl
ATOM     24  C   UNL     1       3.756  49.055  61.959  0.00  0.00    +0.000 A 
ATOM     25  C   UNL     1       3.265  48.249  62.991  0.00  0.00    +0.000 A 
ENDBRANCH  18  19
ENDBRANCH  17  18
ENDBRANCH   1  17
BRANCH   1  26
ATOM     26  C   UNL     1       0.417  48.770  67.057  0.00  0.00    +0.000 C 
BRANCH  26  27
ATOM     27  C   UNL     1       0.407  47.938  68.359  0.00  0.00    +0.000 C 
ATOM     28  C   UNL     1      -0.110  48.856  69.488  0.00  0.00    +0.000 C 
ATOM     29  C   UNL     1      -0.007  48.220  70.866  0.00  0.00    +0.000 C 
ATOM     30  C   UNL     1       1.419  47.770  71.147  0.00  0.00    +0.000 C 
ATOM     31  C   UNL     1       1.889  46.780  70.089  0.00  0.00    +0.000 C 
ATOM     32  C   UNL     1       1.800  47.370  68.682  0.00  0.00    +0.000 C 
ENDBRANCH  26  27
ENDBRANCH   1  26
TORSDOF 6
ENDMDL
MODEL 3
REMARK VINA RESULT:      -9.1      1.767      3.498
REMARK  Name = CHEMBL4082060-8.7
REMARK  6 active torsions:
REMARK  status: ('A' for Active; 'I' for Inactive)
REMARK    1  A    between atoms: C_9  and  N_10
REMARK    2  A    between atoms: N_10  and  C_11
REMARK    3  A    between atoms: N_10  and  C_20
REMARK    4  A    between atoms: C_11  and  C_12
REMARK    5  A    between atoms: C_12  and  C_13
REMARK    6  A    between atoms: C_20  and  C_21
REMARK                            x       y       z     vdW  Elec       q    Type
REMARK                         _______ _______ _______ _____ _____    ______ ____
ROOT
ATOM      1  N   UNL     1      -1.191  49.413  66.554  0.00  0.00    +0.000 NA
ENDROOT
BRANCH   1  10
ATOM      2  N   UNL     1       3.526  50.744  59.844  0.00  0.00    +0.000 N 
ATOM      3  C   UNL     1       3.379  50.130  61.015  0.00  0.00    +0.000 A 
ATOM      4  N   UNL     1       4.188  49.223  61.542  0.00  0.00    +0.000 NA
ATOM      5  N   UNL     1       3.548  48.946  62.690  0.00  0.00    +0.000 N 
ATOM      6  C   UNL     1       2.395  49.672  62.808  0.00  0.00    +0.000 A 
ATOM      7  N   UNL     1       1.525  49.567  63.836  0.00  0.00    +0.000 N 
ATOM      8  C   UNL     1       1.522  48.440  64.760  0.00  0.00    +0.000 C 
ATOM      9  C   UNL     1       0.118  47.873  64.946  0.00  0.00    +0.000 C 
ATOM     10  C   UNL     1      -1.003  48.918  65.153  0.00  0.00    +0.000 C 
ATOM     11  C   UNL     1      -0.885  49.961  64.026  0.00  0.00    +0.000 C 
ATOM     12  C   UNL     1       0.491  50.595  63.930  0.00  0.00    +0.000 C 
ATOM     13  N   UNL     1       2.305  50.466  61.766  0.00  0.00    +0.000 NA
ATOM     14  H   UNL     1       4.447  50.725  59.438  0.00  0.00    +0.000 HD
ATOM     15  H   UNL     1       3.017  51.606  59.721  0.00  0.00    +0.000 HD
ATOM     16  H   UNL     1       3.947  48.282  63.338  0.00  0.00    +0.000 HD
ENDBRANCH   1  10
BRANCH   1  17
ATOM     17  C   UNL     1      -2.250  48.710  67.307  0.00  0.00    +0.000 C 
BRANCH  17  18
ATOM     18  C   UNL     1      -3.207  47.746  66.578  0.00  0.00    +0.000 C 
BRANCH  18  19
ATOM     19  C   UNL     1      -3.670  46.678  67.556  0.00  0.00    +0.000 A 
ATOM     20  C   UNL     1      -4.972  46.155  67.476  0.00  0.00    +0.000 A 
ATOM     21  C   UNL     1      -5.418  45.212  68.406  0.00  0.00    +0.000 A 
ATOM     22  C   UNL     1      -4.568  44.796  69.429  0.00  0.00    +0.000 A 
ATOM     23 CL   UNL     1      -5.110  43.628  70.569  0.00  0.00    +0.000 Cl
ATOM     24  C   UNL     1      -3.283  45.324  69.536  0.00  0.00    +0.000 A 
ATOM     25  C   UNL     1      -2.837  46.265  68.605  0.00  0.00    +0.000 A 
ENDBRANCH  18  19
ENDBRANCH  17  18
ENDBRANCH   1  17
BRANCH   1  26
ATOM     26  C   UNL     1       0.065  49.366  67.333  0.00  0.00    +0.000 C 
BRANCH  26  27
ATOM     27  C   UNL     1       0.201  48.296  68.440  0.00  0.00    +0.000 C 
ATOM     28  C   UNL     1      -0.075  48.993  69.790  0.00  0.00    +0.000 C 
ATOM     29  C   UNL     1       0.196  48.097  70.988  0.00  0.00    +0.000 C 
ATOM     30  C   UNL     1       1.615  47.550  70.943  0.00  0.00    +0.000 C 
ATOM     31  C   UNL     1       1.850  46.770  69.656  0.00  0.00    +0.000 C 
ATOM     32  C   UNL     1       1.586  47.626  68.419  0.00  0.00    +0.000 C 
ENDBRANCH  26  27
ENDBRANCH   1  26
TORSDOF 6
ENDMDL
MODEL 4
REMARK VINA RESULT:      -9.0      3.807      6.494
REMARK  Name = CHEMBL4082060-8.7
REMARK  6 active torsions:
REMARK  status: ('A' for Active; 'I' for Inactive)
REMARK    1  A    between atoms: C_9  and  N_10
REMARK    2  A    between atoms: N_10  and  C_11
REMARK    3  A    between atoms: N_10  and  C_20
REMARK    4  A    between atoms: C_11  and  C_12
REMARK    5  A    between atoms: C_12  and  C_13
REMARK    6  A    between atoms: C_20  and  C_21
REMARK                            x       y       z     vdW  Elec       q    Type
REMARK                         _______ _______ _______ _____ _____    ______ ____
ROOT
ATOM      1  N   UNL     1      -2.315  48.798  67.995  0.00  0.00    +0.000 NA
ENDROOT
BRANCH   1  10
ATOM      2  N   UNL     1      -9.095  50.625  63.553  0.00  0.00    +0.000 N 
ATOM      3  C   UNL     1      -8.577  50.276  64.727  0.00  0.00    +0.000 A 
ATOM      4  N   UNL     1      -9.224  50.165  65.878  0.00  0.00    +0.000 NA
ATOM      5  N   UNL     1      -8.221  49.817  66.702  0.00  0.00    +0.000 N 
ATOM      6  C   UNL     1      -7.029  49.742  66.036  0.00  0.00    +0.000 A 
ATOM      7  N   UNL     1      -5.844  49.458  66.618  0.00  0.00    +0.000 N 
ATOM      8  C   UNL     1      -5.626  49.539  68.056  0.00  0.00    +0.000 C 
ATOM      9  C   UNL     1      -4.361  50.323  68.388  0.00  0.00    +0.000 C 
ATOM     10  C   UNL     1      -3.117  49.977  67.538  0.00  0.00    +0.000 C 
ATOM     11  C   UNL     1      -3.532  50.039  66.056  0.00  0.00    +0.000 C 
ATOM     12  C   UNL     1      -4.727  49.165  65.723  0.00  0.00    +0.000 C 
ATOM     13  N   UNL     1      -7.256  49.986  64.766  0.00  0.00    +0.000 NA
ATOM     14  H   UNL     1     -10.094  50.546  63.460  0.00  0.00    +0.000 HD
ATOM     15  H   UNL     1      -8.563  50.373  62.734  0.00  0.00    +0.000 HD
ATOM     16  H   UNL     1      -8.415  49.636  67.677  0.00  0.00    +0.000 HD
ENDBRANCH   1  10
BRANCH   1  17
ATOM     17  C   UNL     1      -2.860  47.492  67.569  0.00  0.00    +0.000 C 
BRANCH  17  18
ATOM     18  C   UNL     1      -2.893  46.309  68.557  0.00  0.00    +0.000 C 
BRANCH  18  19
ATOM     19  C   UNL     1      -4.271  45.669  68.516  0.00  0.00    +0.000 A 
ATOM     20  C   UNL     1      -5.171  45.981  67.482  0.00  0.00    +0.000 A 
ATOM     21  C   UNL     1      -6.457  45.435  67.471  0.00  0.00    +0.000 A 
ATOM     22  C   UNL     1      -6.854  44.583  68.499  0.00  0.00    +0.000 A 
ATOM     23 CL   UNL     1      -8.434  43.900  68.481  0.00  0.00    +0.000 Cl
ATOM     24  C   UNL     1      -5.983  44.283  69.543  0.00  0.00    +0.000 A 
ATOM     25  C   UNL     1      -4.695  44.828  69.553  0.00  0.00    +0.000 A 
ENDBRANCH  18  19
ENDBRANCH  17  18
ENDBRANCH   1  17
BRANCH   1  26
ATOM     26  C   UNL     1      -0.901  48.889  67.571  0.00  0.00    +0.000 C 
BRANCH  26  27
ATOM     27  C   UNL     1       0.196  48.787  68.653  0.00  0.00    +0.000 C 
ATOM     28  C   UNL     1       1.037  47.531  68.339  0.00  0.00    +0.000 C 
ATOM     29  C   UNL     1       2.050  47.205  69.426  0.00  0.00    +0.000 C 
ATOM     30  C   UNL     1       1.366  47.073  70.778  0.00  0.00    +0.000 C 
ATOM     31  C   UNL     1       0.625  48.355  71.135  0.00  0.00    +0.000 C 
ATOM     32  C   UNL     1      -0.403  48.730  70.069  0.00  0.00    +0.000 C 
ENDBRANCH  26  27
ENDBRANCH   1  26
TORSDOF 6
ENDMDL
MODEL 5
REMARK VINA RESULT:      -9.0      4.290      8.178
REMARK  Name = CHEMBL4082060-8.7
REMARK  6 active torsions:
REMARK  status: ('A' for Active; 'I' for Inactive)
REMARK    1  A    between atoms: C_9  and  N_10
REMARK    2  A    between atoms: N_10  and  C_11
REMARK    3  A    between atoms: N_10  and  C_20
REMARK    4  A    between atoms: C_11  and  C_12
REMARK    5  A    between atoms: C_12  and  C_13
REMARK    6  A    between atoms: C_20  and  C_21
REMARK                            x       y       z     vdW  Elec       q    Type
REMARK                         _______ _______ _______ _____ _____    ______ ____
ROOT
ATOM      1  N   UNL     1      -1.220  49.107  66.523  0.00  0.00    +0.000 NA
ENDROOT
BRANCH   1  10
ATOM      2  N   UNL     1      -9.224  51.054  65.435  0.00  0.00    +0.000 N 
ATOM      3  C   UNL     1      -8.327  50.213  65.942  0.00  0.00    +0.000 A 
ATOM      4  N   UNL     1      -8.571  49.166  66.718  0.00  0.00    +0.000 NA
ATOM      5  N   UNL     1      -7.325  48.715  66.938  0.00  0.00    +0.000 N 
ATOM      6  C   UNL     1      -6.393  49.494  66.310  0.00  0.00    +0.000 A 
ATOM      7  N   UNL     1      -5.058  49.307  66.392  0.00  0.00    +0.000 N 
ATOM      8  C   UNL     1      -4.434  48.483  67.419  0.00  0.00    +0.000 C 
ATOM      9  C   UNL     1      -3.271  49.209  68.089  0.00  0.00    +0.000 C 
ATOM     10  C   UNL     1      -2.302  49.943  67.134  0.00  0.00    +0.000 C 
ATOM     11  C   UNL     1      -3.148  50.828  66.198  0.00  0.00    +0.000 C 
ATOM     12  C   UNL     1      -4.230  50.064  65.456  0.00  0.00    +0.000 C 
ATOM     13  N   UNL     1      -7.027  50.423  65.633  0.00  0.00    +0.000 NA
ATOM     14  H   UNL     1     -10.179  50.734  65.411  0.00  0.00    +0.000 HD
ATOM     15  H   UNL     1      -8.930  51.598  64.638  0.00  0.00    +0.000 HD
ATOM     16  H   UNL     1      -7.185  47.887  67.497  0.00  0.00    +0.000 HD
ENDBRANCH   1  10
BRANCH   1  17
ATOM     17  C   UNL     1      -0.016  49.868  66.130  0.00  0.00    +0.000 C 
BRANCH  17  18
ATOM     18  C   UNL     1       0.233  50.207  64.647  0.00  0.00    +0.000 C 
BRANCH  18  19
ATOM     19  C   UNL     1       1.328  49.299  64.111  0.00  0.00    +0.000 A 
ATOM     20  C   UNL     1       2.130  49.710  63.033  0.00  0.00    +0.000 A 
ATOM     21  C   UNL     1       3.101  48.856  62.503  0.00  0.00    +0.000 A 
ATOM     22  C   UNL     1       3.268  47.582  63.042  0.00  0.00    +0.000 A 
ATOM     23 CL   UNL     1       4.471  46.532  62.400  0.00  0.00    +0.000 Cl
ATOM     24  C   UNL     1       2.465  47.151  64.096  0.00  0.00    +0.000 A 
ATOM     25  C   UNL     1       1.494  48.006  64.626  0.00  0.00    +0.000 A 
ENDBRANCH  18  19
ENDBRANCH  17  18
ENDBRANCH   1  17
BRANCH   1  26
ATOM     26  C   UNL     1      -0.816  47.990  67.405  0.00  0.00    +0.000 C 
BRANCH  26  27
ATOM     27  C   UNL     1       0.272  48.255  68.470  0.00  0.00    +0.000 C 
ATOM     28  C   UNL     1       1.324  47.132  68.341  0.00  0.00    +0.000 C 
ATOM     29  C   UNL     1       2.368  47.165  69.446  0.00  0.00    +0.000 C 
ATOM     30  C   UNL     1       1.705  47.129  70.815  0.00  0.00    +0.000 C 
ATOM     31  C   UNL     1       0.746  48.302  70.980  0.00  0.00    +0.000 C 
ATOM     32  C   UNL     1      -0.322  48.317  69.888  0.00  0.00    +0.000 C 
ENDBRANCH  26  27
ENDBRANCH   1  26
TORSDOF 6
ENDMDL
MODEL 6
REMARK VINA RESULT:      -8.9      4.485      7.323
REMARK  Name = CHEMBL4082060-8.7
REMARK  6 active torsions:
REMARK  status: ('A' for Active; 'I' for Inactive)
REMARK    1  A    between atoms: C_9  and  N_10
REMARK    2  A    between atoms: N_10  and  C_11
REMARK    3  A    between atoms: N_10  and  C_20
REMARK    4  A    between atoms: C_11  and  C_12
REMARK    5  A    between atoms: C_12  and  C_13
REMARK    6  A    between atoms: C_20  and  C_21
REMARK                            x       y       z     vdW  Elec       q    Type
REMARK                         _______ _______ _______ _____ _____    ______ ____
ROOT
ATOM      1  N   UNL     1      -2.493  48.619  68.712  0.00  0.00    +0.000 NA
ENDROOT
BRANCH   1  10
ATOM      2  N   UNL     1       3.961  47.104  73.721  0.00  0.00    +0.000 N 
ATOM      3  C   UNL     1       3.422  46.989  72.510  0.00  0.00    +0.000 A 
ATOM      4  N   UNL     1       4.007  46.504  71.424  0.00  0.00    +0.000 NA
ATOM      5  N   UNL     1       3.026  46.651  70.518  0.00  0.00    +0.000 N 
ATOM      6  C   UNL     1       1.911  47.216  71.075  0.00  0.00    +0.000 A 
ATOM      7  N   UNL     1       0.787  47.523  70.393  0.00  0.00    +0.000 N 
ATOM      8  C   UNL     1       0.741  47.616  68.939  0.00  0.00    +0.000 C 
ATOM      9  C   UNL     1       0.063  48.904  68.481  0.00  0.00    +0.000 C 
ATOM     10  C   UNL     1      -1.244  49.270  69.221  0.00  0.00    +0.000 C 
ATOM     11  C   UNL     1      -0.960  49.206  70.734  0.00  0.00    +0.000 C 
ATOM     12  C   UNL     1      -0.387  47.875  71.187  0.00  0.00    +0.000 C 
ATOM     13  N   UNL     1       2.139  47.390  72.356  0.00  0.00    +0.000 NA
ATOM     14  H   UNL     1       4.778  46.545  73.905  0.00  0.00    +0.000 HD
ATOM     15  H   UNL     1       3.318  47.197  74.492  0.00  0.00    +0.000 HD
ATOM     16  H   UNL     1       3.171  46.340  69.569  0.00  0.00    +0.000 HD
ENDBRANCH   1  10
BRANCH   1  17
ATOM     17  C   UNL     1      -3.382  49.524  67.955  0.00  0.00    +0.000 C 
BRANCH  17  18
ATOM     18  C   UNL     1      -3.702  50.929  68.502  0.00  0.00    +0.000 C 
BRANCH  18  19
ATOM     19  C   UNL     1      -2.544  51.860  68.182  0.00  0.00    +0.000 A 
ATOM     20  C   UNL     1      -1.670  51.571  67.121  0.00  0.00    +0.000 A 
ATOM     21  C   UNL     1      -0.573  52.396  66.858  0.00  0.00    +0.000 A 
ATOM     22  C   UNL     1      -0.338  53.509  67.663  0.00  0.00    +0.000 A 
ATOM     23 CL   UNL     1       1.005  54.533  67.335  0.00  0.00    +0.000 Cl
ATOM     24  C   UNL     1      -1.181  53.795  68.733  0.00  0.00    +0.000 A 
ATOM     25  C   UNL     1      -2.279  52.970  68.995  0.00  0.00    +0.000 A 
ENDBRANCH  18  19
ENDBRANCH  17  18
ENDBRANCH   1  17
BRANCH   1  26
ATOM     26  C   UNL     1      -2.203  47.428  67.885  0.00  0.00    +0.000 C 
BRANCH  26  27
ATOM     27  C   UNL     1      -2.869  46.088  68.272  0.00  0.00    +0.000 C 
ATOM     28  C   UNL     1      -4.396  46.287  68.167  0.00  0.00    +0.000 C 
ATOM     29  C   UNL     1      -5.189  45.099  68.689  0.00  0.00    +0.000 C 
ATOM     30  C   UNL     1      -4.784  44.766  70.118  0.00  0.00    +0.000 C 
ATOM     31  C   UNL     1      -3.293  44.464  70.198  0.00  0.00    +0.000 C 
ATOM     32  C   UNL     1      -2.451  45.629  69.679  0.00  0.00    +0.000 C 
ENDBRANCH  26  27
ENDBRANCH   1  26
TORSDOF 6
ENDMDL
MODEL 7
REMARK VINA RESULT:      -8.9      4.048      7.081
REMARK  Name = CHEMBL4082060-8.7
REMARK  6 active torsions:
REMARK  status: ('A' for Active; 'I' for Inactive)
REMARK    1  A    between atoms: C_9  and  N_10
REMARK    2  A    between atoms: N_10  and  C_11
REMARK    3  A    between atoms: N_10  and  C_20
REMARK    4  A    between atoms: C_11  and  C_12
REMARK    5  A    between atoms: C_12  and  C_13
REMARK    6  A    between atoms: C_20  and  C_21
REMARK                            x       y       z     vdW  Elec       q    Type
REMARK                         _______ _______ _______ _____ _____    ______ ____
ROOT
ATOM      1  N   UNL     1      -2.041  48.897  68.000  0.00  0.00    +0.000 NA
ENDROOT
BRANCH   1  10
ATOM      2  N   UNL     1       3.677  47.074  73.745  0.00  0.00    +0.000 N 
ATOM      3  C   UNL     1       3.283  46.982  72.478  0.00  0.00    +0.000 A 
ATOM      4  N   UNL     1       3.969  46.465  71.470  0.00  0.00    +0.000 NA
ATOM      5  N   UNL     1       3.113  46.658  70.452  0.00  0.00    +0.000 N 
ATOM      6  C   UNL     1       1.969  47.280  70.872  0.00  0.00    +0.000 A 
ATOM      7  N   UNL     1       0.953  47.642  70.060  0.00  0.00    +0.000 N 
ATOM      8  C   UNL     1       1.087  47.732  68.612  0.00  0.00    +0.000 C 
ATOM      9  C   UNL     1       0.535  49.051  68.080  0.00  0.00    +0.000 C 
ATOM     10  C   UNL     1      -0.832  49.485  68.658  0.00  0.00    +0.000 C 
ATOM     11  C   UNL     1      -0.735  49.412  70.193  0.00  0.00    +0.000 C 
ATOM     12  C   UNL     1      -0.290  48.056  70.708  0.00  0.00    +0.000 C 
ATOM     13  N   UNL     1       2.050  47.447  72.172  0.00  0.00    +0.000 NA
ATOM     14  H   UNL     1       4.437  46.475  74.025  0.00  0.00    +0.000 HD
ATOM     15  H   UNL     1       2.951  47.201  74.434  0.00  0.00    +0.000 HD
ATOM     16  H   UNL     1       3.356  46.337  69.526  0.00  0.00    +0.000 HD
ENDBRANCH   1  10
BRANCH   1  17
ATOM     17  C   UNL     1      -2.182  49.243  66.571  0.00  0.00    +0.000 C 
BRANCH  17  18
ATOM     18  C   UNL     1      -1.937  48.173  65.489  0.00  0.00    +0.000 C 
BRANCH  18  19
ATOM     19  C   UNL     1      -0.543  48.362  64.913  0.00  0.00    +0.000 A 
ATOM     20  C   UNL     1      -0.192  49.565  64.278  0.00  0.00    +0.000 A 
ATOM     21  C   UNL     1       1.071  49.723  63.701  0.00  0.00    +0.000 A 
ATOM     22  C   UNL     1       1.986  48.673  63.747  0.00  0.00    +0.000 A 
ATOM     23 CL   UNL     1       3.546  48.868  63.047  0.00  0.00    +0.000 Cl
ATOM     24  C   UNL     1       1.645  47.466  64.352  0.00  0.00    +0.000 A 
ATOM     25  C   UNL     1       0.382  47.309  64.930  0.00  0.00    +0.000 A 
ENDBRANCH  18  19
ENDBRANCH  17  18
ENDBRANCH   1  17
BRANCH   1  26
ATOM     26  C   UNL     1      -2.094  47.426  68.145  0.00  0.00    +0.000 C 
BRANCH  26  27
ATOM     27  C   UNL     1      -3.283  46.809  68.916  0.00  0.00    +0.000 C 
ATOM     28  C   UNL     1      -2.838  45.416  69.408  0.00  0.00    +0.000 C 
ATOM     29  C   UNL     1      -3.969  44.616  70.035  0.00  0.00    +0.000 C 
ATOM     30  C   UNL     1      -5.143  44.499  69.075  0.00  0.00    +0.000 C 
ATOM     31  C   UNL     1      -5.650  45.879  68.674  0.00  0.00    +0.000 C 
ATOM     32  C   UNL     1      -4.547  46.726  68.042  0.00  0.00    +0.000 C 
ENDBRANCH  26  27
ENDBRANCH   1  26
TORSDOF 6
ENDMDL
MODEL 8
REMARK VINA RESULT:      -8.9      2.848      5.344
REMARK  Name = CHEMBL4082060-8.7
REMARK  6 active torsions:
REMARK  status: ('A' for Active; 'I' for Inactive)
REMARK    1  A    between atoms: C_9  and  N_10
REMARK    2  A    between atoms: N_10  and  C_11
REMARK    3  A    between atoms: N_10  and  C_20
REMARK    4  A    between atoms: C_11  and  C_12
REMARK    5  A    between atoms: C_12  and  C_13
REMARK    6  A    between atoms: C_20  and  C_21
REMARK                            x       y       z     vdW  Elec       q    Type
REMARK                         _______ _______ _______ _____ _____    ______ ____
ROOT
ATOM      1  N   UNL     1      -2.810  48.435  67.169  0.00  0.00    +0.000 NA
ENDROOT
BRANCH   1  10
ATOM      2  N   UNL     1      -0.069  54.164  61.812  0.00  0.00    +0.000 N 
ATOM      3  C   UNL     1       0.045  52.933  62.302  0.00  0.00    +0.000 A 
ATOM      4  N   UNL     1       0.847  51.975  61.860  0.00  0.00    +0.000 NA
ATOM      5  N   UNL     1       0.530  50.971  62.696  0.00  0.00    +0.000 N 
ATOM      6  C   UNL     1      -0.438  51.348  63.586  0.00  0.00    +0.000 A 
ATOM      7  N   UNL     1      -0.984  50.533  64.514  0.00  0.00    +0.000 N 
ATOM      8  C   UNL     1      -0.871  49.081  64.459  0.00  0.00    +0.000 C 
ATOM      9  C   UNL     1      -2.225  48.406  64.654  0.00  0.00    +0.000 C 
ATOM     10  C   UNL     1      -3.095  48.971  65.800  0.00  0.00    +0.000 C 
ATOM     11  C   UNL     1      -3.168  50.499  65.622  0.00  0.00    +0.000 C 
ATOM     12  C   UNL     1      -1.806  51.166  65.542  0.00  0.00    +0.000 C 
ATOM     13  N   UNL     1      -0.717  52.613  63.373  0.00  0.00    +0.000 NA
ATOM     14  H   UNL     1       0.688  54.491  61.234  0.00  0.00    +0.000 HD
ATOM     15  H   UNL     1      -0.475  54.856  62.424  0.00  0.00    +0.000 HD
ATOM     16  H   UNL     1       1.007  50.085  62.617  0.00  0.00    +0.000 HD
ENDBRANCH   1  10
BRANCH   1  17
ATOM     17  C   UNL     1      -3.318  49.280  68.268  0.00  0.00    +0.000 C 
BRANCH  17  18
ATOM     18  C   UNL     1      -2.360  50.220  69.026  0.00  0.00    +0.000 C 
BRANCH  18  19
ATOM     19  C   UNL     1      -1.111  49.444  69.414  0.00  0.00    +0.000 A 
ATOM     20  C   UNL     1      -0.232  48.969  68.426  0.00  0.00    +0.000 A 
ATOM     21  C   UNL     1       0.888  48.210  68.776  0.00  0.00    +0.000 A 
ATOM     22  C   UNL     1       1.129  47.913  70.115  0.00  0.00    +0.000 A 
ATOM     23 CL   UNL     1       2.513  46.989  70.551  0.00  0.00    +0.000 Cl
ATOM     24  C   UNL     1       0.254  48.357  71.104  0.00  0.00    +0.000 A 
ATOM     25  C   UNL     1      -0.866  49.117  70.754  0.00  0.00    +0.000 A 
ENDBRANCH  18  19
ENDBRANCH  17  18
ENDBRANCH   1  17
BRANCH   1  26
ATOM     26  C   UNL     1      -3.322  47.058  67.345  0.00  0.00    +0.000 C 
BRANCH  26  27
ATOM     27  C   UNL     1      -3.433  46.496  68.780  0.00  0.00    +0.000 C 
ATOM     28  C   UNL     1      -2.045  45.942  69.164  0.00  0.00    +0.000 C 
ATOM     29  C   UNL     1      -2.048  45.196  70.490  0.00  0.00    +0.000 C 
ATOM     30  C   UNL     1      -3.089  44.087  70.482  0.00  0.00    +0.000 C 
ATOM     31  C   UNL     1      -4.477  44.653  70.208  0.00  0.00    +0.000 C 
ATOM     32  C   UNL     1      -4.525  45.418  68.887  0.00  0.00    +0.000 C 
ENDBRANCH  26  27
ENDBRANCH   1  26
TORSDOF 6
ENDMDL
MODEL 9
REMARK VINA RESULT:      -8.6      3.456      5.292
REMARK  Name = CHEMBL4082060-8.7
REMARK  6 active torsions:
REMARK  status: ('A' for Active; 'I' for Inactive)
REMARK    1  A    between atoms: C_9  and  N_10
REMARK    2  A    between atoms: N_10  and  C_11
REMARK    3  A    between atoms: N_10  and  C_20
REMARK    4  A    between atoms: C_11  and  C_12
REMARK    5  A    between atoms: C_12  and  C_13
REMARK    6  A    between atoms: C_20  and  C_21
REMARK                            x       y       z     vdW  Elec       q    Type
REMARK                         _______ _______ _______ _____ _____    ______ ____
ROOT
ATOM      1  N   UNL     1      -2.316  49.305  68.206  0.00  0.00    +0.000 NA
ENDROOT
BRANCH   1  10
ATOM      2  N   UNL     1      -4.294  53.016  61.040  0.00  0.00    +0.000 N 
ATOM      3  C   UNL     1      -4.707  52.507  62.197  0.00  0.00    +0.000 A 
ATOM      4  N   UNL     1      -5.939  52.541  62.684  0.00  0.00    +0.000 NA
ATOM      5  N   UNL     1      -5.766  51.912  63.859  0.00  0.00    +0.000 N 
ATOM      6  C   UNL     1      -4.463  51.538  64.040  0.00  0.00    +0.000 A 
ATOM      7  N   UNL     1      -3.988  50.930  65.148  0.00  0.00    +0.000 N 
ATOM      8  C   UNL     1      -4.711  50.907  66.413  0.00  0.00    +0.000 C 
ATOM      9  C   UNL     1      -3.814  51.313  67.578  0.00  0.00    +0.000 C 
ATOM     10  C   UNL     1      -2.408  50.669  67.594  0.00  0.00    +0.000 C 
ATOM     11  C   UNL     1      -1.779  50.884  66.205  0.00  0.00    +0.000 C 
ATOM     12  C   UNL     1      -2.640  50.373  65.064  0.00  0.00    +0.000 C 
ATOM     13  N   UNL     1      -3.791  51.871  62.963  0.00  0.00    +0.000 NA
ATOM     14  H   UNL     1      -5.005  53.211  60.354  0.00  0.00    +0.000 HD
ATOM     15  H   UNL     1      -3.427  52.653  60.673  0.00  0.00    +0.000 HD
ATOM     16  H   UNL     1      -6.558  51.762  64.467  0.00  0.00    +0.000 HD
ENDBRANCH   1  10
BRANCH   1  17
ATOM     17  C   UNL     1      -3.544  48.496  68.068  0.00  0.00    +0.000 C 
BRANCH  17  18
ATOM     18  C   UNL     1      -3.511  47.169  67.283  0.00  0.00    +0.000 C 
BRANCH  18  19
ATOM     19  C   UNL     1      -4.084  46.065  68.157  0.00  0.00    +0.000 A 
ATOM     20  C   UNL     1      -5.396  45.604  67.956  0.00  0.00    +0.000 A 
ATOM     21  C   UNL     1      -5.943  44.627  68.791  0.00  0.00    +0.000 A 
ATOM     22  C   UNL     1      -5.184  44.113  69.841  0.00  0.00    +0.000 A 
ATOM     23 CL   UNL     1      -5.850  42.901  70.864  0.00  0.00    +0.000 Cl
ATOM     24  C   UNL     1      -3.890  44.576  70.068  0.00  0.00    +0.000 A 
ATOM     25  C   UNL     1      -3.343  45.552  69.231  0.00  0.00    +0.000 A 
ENDBRANCH  18  19
ENDBRANCH  17  18
ENDBRANCH   1  17
BRANCH   1  26
ATOM     26  C   UNL     1      -1.171  48.534  67.676  0.00  0.00    +0.000 C 
BRANCH  26  27
ATOM     27  C   UNL     1      -0.378  47.636  68.653  0.00  0.00    +0.000 C 
ATOM     28  C   UNL     1      -0.383  48.336  70.028  0.00  0.00    +0.000 C 
ATOM     29  C   UNL     1       0.511  47.650  71.049  0.00  0.00    +0.000 C 
ATOM     30  C   UNL     1       1.930  47.514  70.518  0.00  0.00    +0.000 C 
ATOM     31  C   UNL     1       1.943  46.728  69.213  0.00  0.00    +0.000 C 
ATOM     32  C   UNL     1       1.053  47.375  68.153  0.00  0.00    +0.000 C 
ENDBRANCH  26  27
ENDBRANCH   1  26
TORSDOF 6
ENDMDL
