MODEL 1
REMARK VINA RESULT:      -8.7      0.000      0.000
REMARK  Name = CHEMBL1215474-700
REMARK  3 active torsions:
REMARK  status: ('A' for Active; 'I' for Inactive)
REMARK    1  A    between atoms: C_1  and  C_2
REMARK    2  A    between atoms: C_10  and  C_11
REMARK    3  A    between atoms: C_11  and  N_12
REMARK                            x       y       z     vdW  Elec       q    Type
REMARK                         _______ _______ _______ _____ _____    ______ ____
ROOT
ATOM      1  C   UNL     1      -4.987  46.564  66.720  0.00  0.00    +0.000 C 
ENDROOT
BRANCH   1   2
ATOM      2  N   UNL     1      -5.638  47.877  66.812  0.00  0.00    +0.000 NA
ATOM      3  C   UNL     1      -5.354  48.835  65.742  0.00  0.00    +0.000 C 
ATOM      4  C   UNL     1      -4.255  49.898  66.012  0.00  0.00    +0.000 C 
ATOM      5  N   UNL     1      -4.365  50.553  67.335  0.00  0.00    +0.000 N 
ATOM      6  C   UNL     1      -3.243  51.381  67.628  0.00  0.00    +0.000 A 
ATOM      7  C   UNL     1      -3.322  52.325  68.663  0.00  0.00    +0.000 A 
ATOM      8  C   UNL     1      -2.225  53.132  68.985  0.00  0.00    +0.000 A 
ATOM      9  C   UNL     1      -1.053  52.979  68.262  0.00  0.00    +0.000 A 
ATOM     10  C   UNL     1      -1.058  52.051  67.237  0.00  0.00    +0.000 A 
ATOM     11  N   UNL     1      -2.106  51.264  66.911  0.00  0.00    +0.000 NA
ATOM     12  C   UNL     1      -4.651  49.635  68.457  0.00  0.00    +0.000 C 
ATOM     13  C   UNL     1      -5.699  48.540  68.118  0.00  0.00    +0.000 C 
ENDBRANCH   1   2
BRANCH   1  23
ATOM     14  C   UNL     1      -2.678  46.082  68.957  0.00  0.00    +0.000 C 
ATOM     15  C   UNL     1      -4.089  45.626  68.971  0.00  0.00    +0.000 A 
ATOM     16  N   UNL     1      -4.561  44.886  70.021  0.00  0.00    +0.000 N 
ATOM     17  C   UNL     1      -5.871  44.545  69.826  0.00  0.00    +0.000 A 
ATOM     18  C   UNL     1      -6.715  43.793  70.661  0.00  0.00    +0.000 A 
ATOM     19  C   UNL     1      -8.014  43.540  70.229  0.00  0.00    +0.000 A 
ATOM     20  C   UNL     1      -8.438  44.024  68.992  0.00  0.00    +0.000 A 
ATOM     21  C   UNL     1      -7.579  44.782  68.166  0.00  0.00    +0.000 A 
ATOM     22  C   UNL     1      -6.258  45.073  68.589  0.00  0.00    +0.000 A 
ATOM     23  C   UNL     1      -5.120  45.808  68.049  0.00  0.00    +0.000 A 
ATOM     24  H   UNL     1      -4.020  44.610  70.829  0.00  0.00    +0.000 HD
ENDBRANCH   1  23
TORSDOF 2
ENDMDL
MODEL 2
REMARK VINA RESULT:      -8.6      2.757      4.267
REMARK  Name = CHEMBL1215474-700
REMARK  3 active torsions:
REMARK  status: ('A' for Active; 'I' for Inactive)
REMARK    1  A    between atoms: C_1  and  C_2
REMARK    2  A    between atoms: C_10  and  C_11
REMARK    3  A    between atoms: C_11  and  N_12
REMARK                            x       y       z     vdW  Elec       q    Type
REMARK                         _______ _______ _______ _____ _____    ______ ____
ROOT
ATOM      1  C   UNL     1      -4.149  48.857  66.312  0.00  0.00    +0.000 C 
ENDROOT
BRANCH   1   2
ATOM      2  N   UNL     1      -3.492  49.802  67.223  0.00  0.00    +0.000 NA
ATOM      3  C   UNL     1      -2.181  50.313  66.818  0.00  0.00    +0.000 C 
ATOM      4  C   UNL     1      -0.930  49.613  67.415  0.00  0.00    +0.000 C 
ATOM      5  N   UNL     1      -1.013  49.378  68.875  0.00  0.00    +0.000 N 
ATOM      6  C   UNL     1       0.060  48.574  69.357  0.00  0.00    +0.000 A 
ATOM      7  C   UNL     1       0.332  48.524  70.733  0.00  0.00    +0.000 A 
ATOM      8  C   UNL     1       1.363  47.722  71.234  0.00  0.00    +0.000 A 
ATOM      9  C   UNL     1       2.112  46.971  70.342  0.00  0.00    +0.000 A 
ATOM     10  C   UNL     1       1.808  47.094  68.999  0.00  0.00    +0.000 A 
ATOM     11  N   UNL     1       0.817  47.862  68.497  0.00  0.00    +0.000 NA
ATOM     12  C   UNL     1      -2.314  48.861  69.344  0.00  0.00    +0.000 C 
ATOM     13  C   UNL     1      -3.537  49.534  68.664  0.00  0.00    +0.000 C 
ENDBRANCH   1   2
BRANCH   1  23
ATOM     14  C   UNL     1      -7.201  49.961  66.498  0.00  0.00    +0.000 C 
ATOM     15  C   UNL     1      -6.633  48.712  67.061  0.00  0.00    +0.000 A 
ATOM     16  N   UNL     1      -7.427  47.860  67.780  0.00  0.00    +0.000 N 
ATOM     17  C   UNL     1      -6.706  46.789  68.232  0.00  0.00    +0.000 A 
ATOM     18  C   UNL     1      -7.145  45.699  69.003  0.00  0.00    +0.000 A 
ATOM     19  C   UNL     1      -6.211  44.738  69.378  0.00  0.00    +0.000 A 
ATOM     20  C   UNL     1      -4.878  44.882  68.992  0.00  0.00    +0.000 A 
ATOM     21  C   UNL     1      -4.454  45.981  68.213  0.00  0.00    +0.000 A 
ATOM     22  C   UNL     1      -5.387  46.964  67.799  0.00  0.00    +0.000 A 
ATOM     23  C   UNL     1      -5.342  48.186  67.007  0.00  0.00    +0.000 A 
ATOM     24  H   UNL     1      -8.409  48.002  67.972  0.00  0.00    +0.000 HD
ENDBRANCH   1  23
TORSDOF 2
ENDMDL
MODEL 3
REMARK VINA RESULT:      -8.5      2.538      6.518
REMARK  Name = CHEMBL1215474-700
REMARK  3 active torsions:
REMARK  status: ('A' for Active; 'I' for Inactive)
REMARK    1  A    between atoms: C_1  and  C_2
REMARK    2  A    between atoms: C_10  and  C_11
REMARK    3  A    between atoms: C_11  and  N_12
REMARK                            x       y       z     vdW  Elec       q    Type
REMARK                         _______ _______ _______ _____ _____    ______ ____
ROOT
ATOM      1  C   UNL     1      -0.916  50.771  66.506  0.00  0.00    +0.000 C 
ENDROOT
BRANCH   1   2
ATOM      2  N   UNL     1      -1.632  49.882  65.584  0.00  0.00    +0.000 NA
ATOM      3  C   UNL     1      -2.996  50.265  65.216  0.00  0.00    +0.000 C 
ATOM      4  C   UNL     1      -4.159  49.598  66.000  0.00  0.00    +0.000 C 
ATOM      5  N   UNL     1      -4.013  48.133  66.158  0.00  0.00    +0.000 N 
ATOM      6  C   UNL     1      -4.991  47.580  67.035  0.00  0.00    +0.000 A 
ATOM      7  C   UNL     1      -5.218  46.196  67.046  0.00  0.00    +0.000 A 
ATOM      8  C   UNL     1      -6.155  45.627  67.916  0.00  0.00    +0.000 A 
ATOM      9  C   UNL     1      -6.854  46.460  68.774  0.00  0.00    +0.000 A 
ATOM     10  C   UNL     1      -6.601  47.816  68.686  0.00  0.00    +0.000 A 
ATOM     11  N   UNL     1      -5.701  48.383  67.854  0.00  0.00    +0.000 NA
ATOM     12  C   UNL     1      -2.656  47.684  66.531  0.00  0.00    +0.000 C 
ATOM     13  C   UNL     1      -1.521  48.432  65.779  0.00  0.00    +0.000 C 
ENDBRANCH   1   2
BRANCH   1  23
ATOM     14  C   UNL     1      -3.048  51.793  68.738  0.00  0.00    +0.000 C 
ATOM     15  C   UNL     1      -1.996  50.756  68.870  0.00  0.00    +0.000 A 
ATOM     16  N   UNL     1      -1.822  50.103  70.059  0.00  0.00    +0.000 N 
ATOM     17  C   UNL     1      -0.786  49.212  69.979  0.00  0.00    +0.000 A 
ATOM     18  C   UNL     1      -0.288  48.354  70.973  0.00  0.00    +0.000 A 
ATOM     19  C   UNL     1       0.810  47.556  70.666  0.00  0.00    +0.000 A 
ATOM     20  C   UNL     1       1.386  47.632  69.398  0.00  0.00    +0.000 A 
ATOM     21  C   UNL     1       0.871  48.496  68.408  0.00  0.00    +0.000 A 
ATOM     22  C   UNL     1      -0.259  49.306  68.686  0.00  0.00    +0.000 A 
ATOM     23  C   UNL     1      -1.063  50.274  67.951  0.00  0.00    +0.000 A 
ATOM     24  H   UNL     1      -2.367  50.261  70.896  0.00  0.00    +0.000 HD
ENDBRANCH   1  23
TORSDOF 2
ENDMDL
MODEL 4
REMARK VINA RESULT:      -8.4      1.162      2.102
REMARK  Name = CHEMBL1215474-700
REMARK  3 active torsions:
REMARK  status: ('A' for Active; 'I' for Inactive)
REMARK    1  A    between atoms: C_1  and  C_2
REMARK    2  A    between atoms: C_10  and  C_11
REMARK    3  A    between atoms: C_11  and  N_12
REMARK                            x       y       z     vdW  Elec       q    Type
REMARK                         _______ _______ _______ _____ _____    ______ ____
ROOT
ATOM      1  C   UNL     1      -4.824  46.769  66.842  0.00  0.00    +0.000 C 
ENDROOT
BRANCH   1   2
ATOM      2  N   UNL     1      -5.464  48.089  66.899  0.00  0.00    +0.000 NA
ATOM      3  C   UNL     1      -5.161  49.021  65.812  0.00  0.00    +0.000 C 
ATOM      4  C   UNL     1      -4.054  50.080  66.070  0.00  0.00    +0.000 C 
ATOM      5  N   UNL     1      -4.173  50.765  67.377  0.00  0.00    +0.000 N 
ATOM      6  C   UNL     1      -3.046  51.589  67.663  0.00  0.00    +0.000 A 
ATOM      7  C   UNL     1      -3.128  52.556  68.677  0.00  0.00    +0.000 A 
ATOM      8  C   UNL     1      -2.027  53.361  68.993  0.00  0.00    +0.000 A 
ATOM      9  C   UNL     1      -0.849  53.182  68.286  0.00  0.00    +0.000 A 
ATOM     10  C   UNL     1      -0.852  52.232  67.281  0.00  0.00    +0.000 A 
ATOM     11  N   UNL     1      -1.903  51.447  66.962  0.00  0.00    +0.000 NA
ATOM     12  C   UNL     1      -4.478  49.874  68.515  0.00  0.00    +0.000 C 
ATOM     13  C   UNL     1      -5.532  48.781  68.190  0.00  0.00    +0.000 C 
ENDBRANCH   1   2
BRANCH   1  23
ATOM     14  C   UNL     1      -7.806  45.827  65.952  0.00  0.00    +0.000 C 
ATOM     15  C   UNL     1      -6.990  45.356  67.097  0.00  0.00    +0.000 A 
ATOM     16  N   UNL     1      -7.488  44.410  67.951  0.00  0.00    +0.000 N 
ATOM     17  C   UNL     1      -6.595  44.138  68.951  0.00  0.00    +0.000 A 
ATOM     18  C   UNL     1      -6.724  43.236  70.020  0.00  0.00    +0.000 A 
ATOM     19  C   UNL     1      -5.686  43.157  70.945  0.00  0.00    +0.000 A 
ATOM     20  C   UNL     1      -4.562  43.969  70.793  0.00  0.00    +0.000 A 
ATOM     21  C   UNL     1      -4.446  44.867  69.710  0.00  0.00    +0.000 A 
ATOM     22  C   UNL     1      -5.478  44.954  68.742  0.00  0.00    +0.000 A 
ATOM     23  C   UNL     1      -5.710  45.716  67.521  0.00  0.00    +0.000 A 
ATOM     24  H   UNL     1      -8.398  43.977  67.874  0.00  0.00    +0.000 HD
ENDBRANCH   1  23
TORSDOF 2
ENDMDL
MODEL 5
REMARK VINA RESULT:      -8.1      3.313      6.705
REMARK  Name = CHEMBL1215474-700
REMARK  3 active torsions:
REMARK  status: ('A' for Active; 'I' for Inactive)
REMARK    1  A    between atoms: C_1  and  C_2
REMARK    2  A    between atoms: C_10  and  C_11
REMARK    3  A    between atoms: C_11  and  N_12
REMARK                            x       y       z     vdW  Elec       q    Type
REMARK                         _______ _______ _______ _____ _____    ______ ____
ROOT
ATOM      1  C   UNL     1      -1.851  49.736  67.841  0.00  0.00    +0.000 C 
ENDROOT
BRANCH   1   2
ATOM      2  N   UNL     1      -2.942  49.101  68.590  0.00  0.00    +0.000 NA
ATOM      3  C   UNL     1      -3.272  47.718  68.239  0.00  0.00    +0.000 C 
ATOM      4  C   UNL     1      -4.457  47.495  67.261  0.00  0.00    +0.000 C 
ATOM      5  N   UNL     1      -5.662  48.291  67.588  0.00  0.00    +0.000 N 
ATOM      6  C   UNL     1      -6.660  48.207  66.574  0.00  0.00    +0.000 A 
ATOM      7  C   UNL     1      -7.974  48.612  66.852  0.00  0.00    +0.000 A 
ATOM      8  C   UNL     1      -8.966  48.563  65.865  0.00  0.00    +0.000 A 
ATOM      9  C   UNL     1      -8.624  48.108  64.602  0.00  0.00    +0.000 A 
ATOM     10  C   UNL     1      -7.318  47.697  64.410  0.00  0.00    +0.000 A 
ATOM     11  N   UNL     1      -6.347  47.737  65.349  0.00  0.00    +0.000 NA
ATOM     12  C   UNL     1      -5.394  49.697  67.949  0.00  0.00    +0.000 C 
ATOM     13  C   UNL     1      -4.152  49.882  68.864  0.00  0.00    +0.000 C 
ENDBRANCH   1   2
BRANCH   1  23
ATOM     14  C   UNL     1      -0.331  48.328  65.335  0.00  0.00    +0.000 C 
ATOM     15  C   UNL     1       0.016  48.274  66.776  0.00  0.00    +0.000 A 
ATOM     16  N   UNL     1       1.095  47.546  67.195  0.00  0.00    +0.000 N 
ATOM     17  C   UNL     1       1.223  47.604  68.556  0.00  0.00    +0.000 A 
ATOM     18  C   UNL     1       2.191  46.996  69.373  0.00  0.00    +0.000 A 
ATOM     19  C   UNL     1       2.094  47.169  70.751  0.00  0.00    +0.000 A 
ATOM     20  C   UNL     1       1.048  47.923  71.281  0.00  0.00    +0.000 A 
ATOM     21  C   UNL     1       0.084  48.531  70.446  0.00  0.00    +0.000 A 
ATOM     22  C   UNL     1       0.170  48.390  69.038  0.00  0.00    +0.000 A 
ATOM     23  C   UNL     1      -0.591  48.860  67.887  0.00  0.00    +0.000 A 
ATOM     24  H   UNL     1       1.713  47.019  66.592  0.00  0.00    +0.000 HD
ENDBRANCH   1  23
TORSDOF 2
ENDMDL
MODEL 6
REMARK VINA RESULT:      -8.0      5.932      9.517
REMARK  Name = CHEMBL1215474-700
REMARK  3 active torsions:
REMARK  status: ('A' for Active; 'I' for Inactive)
REMARK    1  A    between atoms: C_1  and  C_2
REMARK    2  A    between atoms: C_10  and  C_11
REMARK    3  A    between atoms: C_11  and  N_12
REMARK                            x       y       z     vdW  Elec       q    Type
REMARK                         _______ _______ _______ _____ _____    ______ ____
ROOT
ATOM      1  C   UNL     1       2.107  48.845  64.201  0.00  0.00    +0.000 C 
ENDROOT
BRANCH   1   2
ATOM      2  N   UNL     1       0.681  49.084  63.946  0.00  0.00    +0.000 NA
ATOM      3  C   UNL     1       0.286  50.454  63.618  0.00  0.00    +0.000 C 
ATOM      4  C   UNL     1      -0.267  51.332  64.773  0.00  0.00    +0.000 C 
ATOM      5  N   UNL     1      -1.271  50.648  65.619  0.00  0.00    +0.000 N 
ATOM      6  C   UNL     1      -1.618  51.408  66.774  0.00  0.00    +0.000 A 
ATOM      7  C   UNL     1      -2.774  51.085  67.501  0.00  0.00    +0.000 A 
ATOM      8  C   UNL     1      -3.122  51.800  68.653  0.00  0.00    +0.000 A 
ATOM      9  C   UNL     1      -2.299  52.836  69.065  0.00  0.00    +0.000 A 
ATOM     10  C   UNL     1      -1.195  53.117  68.281  0.00  0.00    +0.000 A 
ATOM     11  N   UNL     1      -0.843  52.439  67.168  0.00  0.00    +0.000 NA
ATOM     12  C   UNL     1      -0.927  49.259  65.985  0.00  0.00    +0.000 C 
ATOM     13  C   UNL     1      -0.305  48.441  64.821  0.00  0.00    +0.000 C 
ENDBRANCH   1   2
BRANCH   1  23
ATOM     14  C   UNL     1       3.579  46.098  63.273  0.00  0.00    +0.000 C 
ATOM     15  C   UNL     1       3.470  47.382  62.539  0.00  0.00    +0.000 A 
ATOM     16  N   UNL     1       4.048  47.520  61.307  0.00  0.00    +0.000 N 
ATOM     17  C   UNL     1       3.857  48.784  60.818  0.00  0.00    +0.000 A 
ATOM     18  C   UNL     1       4.292  49.327  59.598  0.00  0.00    +0.000 A 
ATOM     19  C   UNL     1       4.007  50.663  59.331  0.00  0.00    +0.000 A 
ATOM     20  C   UNL     1       3.313  51.422  60.273  0.00  0.00    +0.000 A 
ATOM     21  C   UNL     1       2.879  50.860  61.494  0.00  0.00    +0.000 A 
ATOM     22  C   UNL     1       3.137  49.497  61.783  0.00  0.00    +0.000 A 
ATOM     23  C   UNL     1       2.848  48.584  62.882  0.00  0.00    +0.000 A 
ATOM     24  H   UNL     1       4.564  46.799  60.821  0.00  0.00    +0.000 HD
ENDBRANCH   1  23
TORSDOF 2
ENDMDL
MODEL 7
REMARK VINA RESULT:      -7.9      3.862      5.608
REMARK  Name = CHEMBL1215474-700
REMARK  3 active torsions:
REMARK  status: ('A' for Active; 'I' for Inactive)
REMARK    1  A    between atoms: C_1  and  C_2
REMARK    2  A    between atoms: C_10  and  C_11
REMARK    3  A    between atoms: C_11  and  N_12
REMARK                            x       y       z     vdW  Elec       q    Type
REMARK                         _______ _______ _______ _____ _____    ______ ____
ROOT
ATOM      1  C   UNL     1      -3.009  49.563  65.890  0.00  0.00    +0.000 C 
ENDROOT
BRANCH   1   2
ATOM      2  N   UNL     1      -1.680  49.245  66.426  0.00  0.00    +0.000 NA
ATOM      3  C   UNL     1      -0.723  50.349  66.527  0.00  0.00    +0.000 C 
ATOM      4  C   UNL     1       0.308  50.504  65.377  0.00  0.00    +0.000 C 
ATOM      5  N   UNL     1       0.958  49.235  64.978  0.00  0.00    +0.000 N 
ATOM      6  C   UNL     1       1.754  49.377  63.804  0.00  0.00    +0.000 A 
ATOM      7  C   UNL     1       2.694  48.389  63.474  0.00  0.00    +0.000 A 
ATOM      8  C   UNL     1       3.469  48.494  62.313  0.00  0.00    +0.000 A 
ATOM      9  C   UNL     1       3.288  49.594  61.491  0.00  0.00    +0.000 A 
ATOM     10  C   UNL     1       2.368  50.542  61.897  0.00  0.00    +0.000 A 
ATOM     11  N   UNL     1       1.610  50.459  63.012  0.00  0.00    +0.000 NA
ATOM     12  C   UNL     1       0.042  48.083  64.858  0.00  0.00    +0.000 C 
ATOM     13  C   UNL     1      -1.023  48.010  65.987  0.00  0.00    +0.000 C 
ENDBRANCH   1   2
BRANCH   1  23
ATOM     14  C   UNL     1      -3.740  51.366  68.495  0.00  0.00    +0.000 C 
ATOM     15  C   UNL     1      -4.356  50.093  68.049  0.00  0.00    +0.000 A 
ATOM     16  N   UNL     1      -5.363  49.524  68.780  0.00  0.00    +0.000 N 
ATOM     17  C   UNL     1      -5.770  48.346  68.215  0.00  0.00    +0.000 A 
ATOM     18  C   UNL     1      -6.769  47.462  68.654  0.00  0.00    +0.000 A 
ATOM     19  C   UNL     1      -6.981  46.293  67.927  0.00  0.00    +0.000 A 
ATOM     20  C   UNL     1      -6.202  46.029  66.802  0.00  0.00    +0.000 A 
ATOM     21  C   UNL     1      -5.204  46.930  66.371  0.00  0.00    +0.000 A 
ATOM     22  C   UNL     1      -4.980  48.137  67.079  0.00  0.00    +0.000 A 
ATOM     23  C   UNL     1      -4.090  49.284  66.943  0.00  0.00    +0.000 A 
ATOM     24  H   UNL     1      -5.751  49.905  69.632  0.00  0.00    +0.000 HD
ENDBRANCH   1  23
TORSDOF 2
ENDMDL
MODEL 8
REMARK VINA RESULT:      -7.9      4.596      6.740
REMARK  Name = CHEMBL1215474-700
REMARK  3 active torsions:
REMARK  status: ('A' for Active; 'I' for Inactive)
REMARK    1  A    between atoms: C_1  and  C_2
REMARK    2  A    between atoms: C_10  and  C_11
REMARK    3  A    between atoms: C_11  and  N_12
REMARK                            x       y       z     vdW  Elec       q    Type
REMARK                         _______ _______ _______ _____ _____    ______ ____
ROOT
ATOM      1  C   UNL     1      -1.771  49.276  66.603  0.00  0.00    +0.000 C 
ENDROOT
BRANCH   1   2
ATOM      2  N   UNL     1      -1.963  50.685  66.240  0.00  0.00    +0.000 NA
ATOM      3  C   UNL     1      -2.960  50.975  65.208  0.00  0.00    +0.000 C 
ATOM      4  C   UNL     1      -2.445  51.170  63.756  0.00  0.00    +0.000 C 
ATOM      5  N   UNL     1      -1.261  52.052  63.653  0.00  0.00    +0.000 N 
ATOM      6  C   UNL     1      -0.702  52.062  62.342  0.00  0.00    +0.000 A 
ATOM      7  C   UNL     1       0.199  53.073  61.974  0.00  0.00    +0.000 A 
ATOM      8  C   UNL     1       0.779  53.090  60.700  0.00  0.00    +0.000 A 
ATOM      9  C   UNL     1       0.450  52.084  59.807  0.00  0.00    +0.000 A 
ATOM     10  C   UNL     1      -0.468  51.139  60.229  0.00  0.00    +0.000 A 
ATOM     11  N   UNL     1      -1.038  51.106  61.452  0.00  0.00    +0.000 NA
ATOM     12  C   UNL     1      -0.217  51.807  64.669  0.00  0.00    +0.000 C 
ATOM     13  C   UNL     1      -0.780  51.539  66.092  0.00  0.00    +0.000 C 
ENDBRANCH   1   2
BRANCH   1  23
ATOM     14  C   UNL     1      -3.640  50.365  69.031  0.00  0.00    +0.000 C 
ATOM     15  C   UNL     1      -2.349  49.639  69.111  0.00  0.00    +0.000 A 
ATOM     16  N   UNL     1      -1.793  49.361  70.330  0.00  0.00    +0.000 N 
ATOM     17  C   UNL     1      -0.596  48.714  70.183  0.00  0.00    +0.000 A 
ATOM     18  C   UNL     1       0.284  48.261  71.179  0.00  0.00    +0.000 A 
ATOM     19  C   UNL     1       1.475  47.657  70.783  0.00  0.00    +0.000 A 
ATOM     20  C   UNL     1       1.764  47.526  69.425  0.00  0.00    +0.000 A 
ATOM     21  C   UNL     1       0.866  47.983  68.435  0.00  0.00    +0.000 A 
ATOM     22  C   UNL     1      -0.362  48.583  68.809  0.00  0.00    +0.000 A 
ATOM     23  C   UNL     1      -1.512  49.143  68.111  0.00  0.00    +0.000 A 
ATOM     24  H   UNL     1      -2.194  49.609  71.224  0.00  0.00    +0.000 HD
ENDBRANCH   1  23
TORSDOF 2
ENDMDL
MODEL 9
REMARK VINA RESULT:      -7.9      5.838      9.968
REMARK  Name = CHEMBL1215474-700
REMARK  3 active torsions:
REMARK  status: ('A' for Active; 'I' for Inactive)
REMARK    1  A    between atoms: C_1  and  C_2
REMARK    2  A    between atoms: C_10  and  C_11
REMARK    3  A    between atoms: C_11  and  N_12
REMARK                            x       y       z     vdW  Elec       q    Type
REMARK                         _______ _______ _______ _____ _____    ______ ____
ROOT
ATOM      1  C   UNL     1       0.287  50.702  63.918  0.00  0.00    +0.000 C 
ENDROOT
BRANCH   1   2
ATOM      2  N   UNL     1       0.481  49.280  64.225  0.00  0.00    +0.000 NA
ATOM      3  C   UNL     1      -0.657  48.564  64.803  0.00  0.00    +0.000 C 
ATOM      4  C   UNL     1      -0.686  48.399  66.347  0.00  0.00    +0.000 C 
ATOM      5  N   UNL     1       0.603  47.960  66.928  0.00  0.00    +0.000 N 
ATOM      6  C   UNL     1       0.600  47.999  68.352  0.00  0.00    +0.000 A 
ATOM      7  C   UNL     1       1.592  47.316  69.072  0.00  0.00    +0.000 A 
ATOM      8  C   UNL     1       1.623  47.359  70.471  0.00  0.00    +0.000 A 
ATOM      9  C   UNL     1       0.655  48.095  71.134  0.00  0.00    +0.000 A 
ATOM     10  C   UNL     1      -0.308  48.716  70.361  0.00  0.00    +0.000 A 
ATOM     11  N   UNL     1      -0.356  48.686  69.011  0.00  0.00    +0.000 NA
ATOM     12  C   UNL     1       1.792  48.649  66.384  0.00  0.00    +0.000 C 
ATOM     13  C   UNL     1       1.742  48.862  64.846  0.00  0.00    +0.000 C 
ENDBRANCH   1   2
BRANCH   1  23
ATOM     14  C   UNL     1      -0.253  53.158  61.856  0.00  0.00    +0.000 C 
ATOM     15  C   UNL     1       0.854  52.171  61.850  0.00  0.00    +0.000 A 
ATOM     16  N   UNL     1       1.811  52.219  60.873  0.00  0.00    +0.000 N 
ATOM     17  C   UNL     1       2.720  51.209  61.031  0.00  0.00    +0.000 A 
ATOM     18  C   UNL     1       3.845  50.910  60.245  0.00  0.00    +0.000 A 
ATOM     19  C   UNL     1       4.609  49.796  60.582  0.00  0.00    +0.000 A 
ATOM     20  C   UNL     1       4.239  49.010  61.673  0.00  0.00    +0.000 A 
ATOM     21  C   UNL     1       3.108  49.326  62.456  0.00  0.00    +0.000 A 
ATOM     22  C   UNL     1       2.323  50.466  62.149  0.00  0.00    +0.000 A 
ATOM     23  C   UNL     1       1.139  51.107  62.707  0.00  0.00    +0.000 A 
ATOM     24  H   UNL     1       1.844  52.895  60.122  0.00  0.00    +0.000 HD
ENDBRANCH   1  23
TORSDOF 2
ENDMDL
