MODEL 1
REMARK VINA RESULT:     -10.0      0.000      0.000
REMARK  Name = CHEMBL4077482-5.4
REMARK  6 active torsions:
REMARK  status: ('A' for Active; 'I' for Inactive)
REMARK    1  A    between atoms: C_9  and  N_10
REMARK    2  A    between atoms: N_10  and  C_11
REMARK    3  A    between atoms: N_10  and  C_20
REMARK    4  A    between atoms: C_11  and  C_12
REMARK    5  A    between atoms: C_12  and  C_13
REMARK    6  A    between atoms: C_20  and  C_21
REMARK                            x       y       z     vdW  Elec       q    Type
REMARK                         _______ _______ _______ _____ _____    ______ ____
ROOT
ATOM      1  N   UNL     1      -1.070  48.151  67.241  0.00  0.00    +0.000 NA
ENDROOT
BRANCH   1  10
ATOM      2  N   UNL     1       3.573  47.334  73.924  0.00  0.00    +0.000 N 
ATOM      3  C   UNL     1       3.359  47.107  72.631  0.00  0.00    +0.000 A 
ATOM      4  N   UNL     1       4.236  46.569  71.791  0.00  0.00    +0.000 NA
ATOM      5  N   UNL     1       3.525  46.561  70.655  0.00  0.00    +0.000 N 
ATOM      6  C   UNL     1       2.267  47.080  70.831  0.00  0.00    +0.000 A 
ATOM      7  N   UNL     1       1.348  47.160  69.832  0.00  0.00    +0.000 N 
ATOM      8  C   UNL     1       1.697  47.187  68.416  0.00  0.00    +0.000 C 
ATOM      9  C   UNL     1       1.386  48.559  67.819  0.00  0.00    +0.000 C 
ATOM     10  C   UNL     1      -0.094  48.976  68.027  0.00  0.00    +0.000 C 
ATOM     11  C   UNL     1      -0.300  48.958  69.564  0.00  0.00    +0.000 C 
ATOM     12  C   UNL     1      -0.021  47.575  70.153  0.00  0.00    +0.000 C 
ATOM     13  N   UNL     1       2.143  47.401  72.099  0.00  0.00    +0.000 NA
ATOM     14  H   UNL     1       4.344  46.837  74.349  0.00  0.00    +0.000 HD
ATOM     15  H   UNL     1       2.756  47.439  74.510  0.00  0.00    +0.000 HD
ATOM     16  H   UNL     1       3.935  46.168  69.818  0.00  0.00    +0.000 HD
ENDBRANCH   1  10
BRANCH   1  17
ATOM     17  C   UNL     1      -2.398  48.050  67.902  0.00  0.00    +0.000 C 
BRANCH  17  18
ATOM     18  C   UNL     1      -3.428  47.115  67.214  0.00  0.00    +0.000 C 
BRANCH  18  19
ATOM     19  C   UNL     1      -4.015  46.092  68.170  0.00  0.00    +0.000 A 
ATOM     20  C   UNL     1      -3.237  45.555  69.206  0.00  0.00    +0.000 A 
ATOM     21  C   UNL     1      -3.766  44.587  70.068  0.00  0.00    +0.000 A 
ATOM     22  C   UNL     1      -5.079  44.155  69.897  0.00  0.00    +0.000 A 
ATOM     23 CL   UNL     1      -5.724  42.944  70.933  0.00  0.00    +0.000 Cl
ATOM     24  C   UNL     1      -5.872  44.698  68.889  0.00  0.00    +0.000 A 
ATOM     25  C   UNL     1      -5.344  45.668  68.033  0.00  0.00    +0.000 A 
ENDBRANCH  18  19
ENDBRANCH  17  18
ENDBRANCH   1  17
BRANCH   1  26
ATOM     26  C   UNL     1      -1.189  48.580  65.824  0.00  0.00    +0.000 C 
BRANCH  26  27
ATOM     27  C   UNL     1       0.078  48.565  64.987  0.00  0.00    +0.000 A 
ATOM     28  C   UNL     1       0.844  47.396  64.862  0.00  0.00    +0.000 A 
ATOM     29  C   UNL     1       2.018  47.381  64.107  0.00  0.00    +0.000 A 
ATOM     30  C   UNL     1       2.442  48.536  63.455  0.00  0.00    +0.000 A 
ATOM     31  C   UNL     1       1.689  49.702  63.556  0.00  0.00    +0.000 A 
ATOM     32  C   UNL     1       0.516  49.714  64.310  0.00  0.00    +0.000 A 
ENDBRANCH  26  27
ENDBRANCH   1  26
TORSDOF 6
ENDMDL
MODEL 2
REMARK VINA RESULT:      -9.8      4.039      8.095
REMARK  Name = CHEMBL4077482-5.4
REMARK  6 active torsions:
REMARK  status: ('A' for Active; 'I' for Inactive)
REMARK    1  A    between atoms: C_9  and  N_10
REMARK    2  A    between atoms: N_10  and  C_11
REMARK    3  A    between atoms: N_10  and  C_20
REMARK    4  A    between atoms: C_11  and  C_12
REMARK    5  A    between atoms: C_12  and  C_13
REMARK    6  A    between atoms: C_20  and  C_21
REMARK                            x       y       z     vdW  Elec       q    Type
REMARK                         _______ _______ _______ _____ _____    ______ ____
ROOT
ATOM      1  N   UNL     1      -1.456  48.863  66.981  0.00  0.00    +0.000 NA
ENDROOT
BRANCH   1  10
ATOM      2  N   UNL     1      -8.703  45.110  66.448  0.00  0.00    +0.000 N 
ATOM      3  C   UNL     1      -7.507  45.240  67.017  0.00  0.00    +0.000 A 
ATOM      4  N   UNL     1      -7.107  44.604  68.112  0.00  0.00    +0.000 NA
ATOM      5  N   UNL     1      -5.860  45.079  68.238  0.00  0.00    +0.000 N 
ATOM      6  C   UNL     1      -5.545  45.969  67.241  0.00  0.00    +0.000 A 
ATOM      7  N   UNL     1      -4.331  46.571  67.138  0.00  0.00    +0.000 N 
ATOM      8  C   UNL     1      -3.424  46.755  68.266  0.00  0.00    +0.000 C 
ATOM      9  C   UNL     1      -3.313  48.237  68.622  0.00  0.00    +0.000 C 
ATOM     10  C   UNL     1      -2.871  49.107  67.415  0.00  0.00    +0.000 C 
ATOM     11  C   UNL     1      -3.948  48.856  66.329  0.00  0.00    +0.000 C 
ATOM     12  C   UNL     1      -4.032  47.377  65.950  0.00  0.00    +0.000 C 
ATOM     13  N   UNL     1      -6.582  46.051  66.439  0.00  0.00    +0.000 NA
ATOM     14  H   UNL     1      -9.242  44.295  66.707  0.00  0.00    +0.000 HD
ATOM     15  H   UNL     1      -8.777  45.381  65.477  0.00  0.00    +0.000 HD
ATOM     16  H   UNL     1      -5.276  44.742  68.992  0.00  0.00    +0.000 HD
ENDBRANCH   1  10
BRANCH   1  17
ATOM     17  C   UNL     1      -1.240  49.151  65.540  0.00  0.00    +0.000 C 
BRANCH  17  18
ATOM     18  C   UNL     1       0.031  49.971  65.194  0.00  0.00    +0.000 C 
BRANCH  18  19
ATOM     19  C   UNL     1       1.075  49.147  64.461  0.00  0.00    +0.000 A 
ATOM     20  C   UNL     1       1.314  47.813  64.824  0.00  0.00    +0.000 A 
ATOM     21  C   UNL     1       2.299  47.062  64.172  0.00  0.00    +0.000 A 
ATOM     22  C   UNL     1       3.047  47.644  63.151  0.00  0.00    +0.000 A 
ATOM     23 CL   UNL     1       4.280  46.736  62.368  0.00  0.00    +0.000 Cl
ATOM     24  C   UNL     1       2.805  48.960  62.763  0.00  0.00    +0.000 A 
ATOM     25  C   UNL     1       1.817  49.706  63.411  0.00  0.00    +0.000 A 
ENDBRANCH  18  19
ENDBRANCH  17  18
ENDBRANCH   1  17
BRANCH   1  26
ATOM     26  C   UNL     1      -0.455  49.550  67.838  0.00  0.00    +0.000 C 
BRANCH  26  27
ATOM     27  C   UNL     1       0.320  48.692  68.822  0.00  0.00    +0.000 A 
ATOM     28  C   UNL     1       0.030  48.729  70.194  0.00  0.00    +0.000 A 
ATOM     29  C   UNL     1       0.750  47.954  71.104  0.00  0.00    +0.000 A 
ATOM     30  C   UNL     1       1.771  47.120  70.655  0.00  0.00    +0.000 A 
ATOM     31  C   UNL     1       2.065  47.060  69.297  0.00  0.00    +0.000 A 
ATOM     32  C   UNL     1       1.343  47.834  68.389  0.00  0.00    +0.000 A 
ENDBRANCH  26  27
ENDBRANCH   1  26
TORSDOF 6
ENDMDL
MODEL 3
REMARK VINA RESULT:      -9.7      3.044      5.842
REMARK  Name = CHEMBL4077482-5.4
REMARK  6 active torsions:
REMARK  status: ('A' for Active; 'I' for Inactive)
REMARK    1  A    between atoms: C_9  and  N_10
REMARK    2  A    between atoms: N_10  and  C_11
REMARK    3  A    between atoms: N_10  and  C_20
REMARK    4  A    between atoms: C_11  and  C_12
REMARK    5  A    between atoms: C_12  and  C_13
REMARK    6  A    between atoms: C_20  and  C_21
REMARK                            x       y       z     vdW  Elec       q    Type
REMARK                         _______ _______ _______ _____ _____    ______ ____
ROOT
ATOM      1  N   UNL     1      -1.269  48.788  68.117  0.00  0.00    +0.000 NA
ENDROOT
BRANCH   1  10
ATOM      2  N   UNL     1       4.310  48.494  62.143  0.00  0.00    +0.000 N 
ATOM      3  C   UNL     1       3.207  49.019  62.670  0.00  0.00    +0.000 A 
ATOM      4  N   UNL     1       2.575  50.093  62.211  0.00  0.00    +0.000 NA
ATOM      5  N   UNL     1       1.556  50.177  63.078  0.00  0.00    +0.000 N 
ATOM      6  C   UNL     1       1.597  49.176  64.017  0.00  0.00    +0.000 A 
ATOM      7  N   UNL     1       0.661  49.033  64.992  0.00  0.00    +0.000 N 
ATOM      8  C   UNL     1      -0.174  50.128  65.475  0.00  0.00    +0.000 C 
ATOM      9  C   UNL     1       0.206  50.491  66.910  0.00  0.00    +0.000 C 
ATOM     10  C   UNL     1       0.128  49.277  67.873  0.00  0.00    +0.000 C 
ATOM     11  C   UNL     1       1.099  48.229  67.269  0.00  0.00    +0.000 C 
ATOM     12  C   UNL     1       0.695  47.842  65.846  0.00  0.00    +0.000 C 
ATOM     13  N   UNL     1       2.631  48.414  63.743  0.00  0.00    +0.000 NA
ATOM     14  H   UNL     1       4.533  48.766  61.196  0.00  0.00    +0.000 HD
ATOM     15  H   UNL     1       4.508  47.528  62.370  0.00  0.00    +0.000 HD
ATOM     16  H   UNL     1       0.865  50.905  62.961  0.00  0.00    +0.000 HD
ENDBRANCH   1  10
BRANCH   1  17
ATOM     17  C   UNL     1      -1.358  47.860  69.274  0.00  0.00    +0.000 C 
BRANCH  17  18
ATOM     18  C   UNL     1      -1.402  46.348  68.929  0.00  0.00    +0.000 C 
BRANCH  18  19
ATOM     19  C   UNL     1      -2.801  45.768  69.028  0.00  0.00    +0.000 A 
ATOM     20  C   UNL     1      -3.799  46.152  68.119  0.00  0.00    +0.000 A 
ATOM     21  C   UNL     1      -5.099  45.644  68.229  0.00  0.00    +0.000 A 
ATOM     22  C   UNL     1      -5.404  44.746  69.248  0.00  0.00    +0.000 A 
ATOM     23 CL   UNL     1      -7.007  44.142  69.406  0.00  0.00    +0.000 Cl
ATOM     24  C   UNL     1      -4.418  44.335  70.143  0.00  0.00    +0.000 A 
ATOM     25  C   UNL     1      -3.120  44.839  70.028  0.00  0.00    +0.000 A 
ENDBRANCH  18  19
ENDBRANCH  17  18
ENDBRANCH   1  17
BRANCH   1  26
ATOM     26  C   UNL     1      -2.264  49.887  68.212  0.00  0.00    +0.000 C 
BRANCH  26  27
ATOM     27  C   UNL     1      -3.633  49.637  67.604  0.00  0.00    +0.000 A 
ATOM     28  C   UNL     1      -4.791  49.686  68.394  0.00  0.00    +0.000 A 
ATOM     29  C   UNL     1      -6.050  49.441  67.843  0.00  0.00    +0.000 A 
ATOM     30  C   UNL     1      -6.173  49.152  66.486  0.00  0.00    +0.000 A 
ATOM     31  C   UNL     1      -5.037  49.113  65.683  0.00  0.00    +0.000 A 
ATOM     32  C   UNL     1      -3.780  49.359  66.236  0.00  0.00    +0.000 A 
ENDBRANCH  26  27
ENDBRANCH   1  26
TORSDOF 6
ENDMDL
MODEL 4
REMARK VINA RESULT:      -9.7      4.919      8.972
REMARK  Name = CHEMBL4077482-5.4
REMARK  6 active torsions:
REMARK  status: ('A' for Active; 'I' for Inactive)
REMARK    1  A    between atoms: C_9  and  N_10
REMARK    2  A    between atoms: N_10  and  C_11
REMARK    3  A    between atoms: N_10  and  C_20
REMARK    4  A    between atoms: C_11  and  C_12
REMARK    5  A    between atoms: C_12  and  C_13
REMARK    6  A    between atoms: C_20  and  C_21
REMARK                            x       y       z     vdW  Elec       q    Type
REMARK                         _______ _______ _______ _____ _____    ______ ____
ROOT
ATOM      1  N   UNL     1      -0.460  48.646  65.962  0.00  0.00    +0.000 NA
ENDROOT
BRANCH   1  10
ATOM      2  N   UNL     1      -8.447  49.623  64.496  0.00  0.00    +0.000 N 
ATOM      3  C   UNL     1      -7.422  49.597  65.344  0.00  0.00    +0.000 A 
ATOM      4  N   UNL     1      -7.475  49.954  66.622  0.00  0.00    +0.000 NA
ATOM      5  N   UNL     1      -6.209  49.731  66.999  0.00  0.00    +0.000 N 
ATOM      6  C   UNL     1      -5.440  49.256  65.966  0.00  0.00    +0.000 A 
ATOM      7  N   UNL     1      -4.127  48.933  66.104  0.00  0.00    +0.000 N 
ATOM      8  C   UNL     1      -3.266  49.484  67.144  0.00  0.00    +0.000 C 
ATOM      9  C   UNL     1      -2.218  50.412  66.529  0.00  0.00    +0.000 C 
ATOM     10  C   UNL     1      -1.373  49.712  65.432  0.00  0.00    +0.000 C 
ATOM     11  C   UNL     1      -2.407  49.235  64.380  0.00  0.00    +0.000 C 
ATOM     12  C   UNL     1      -3.432  48.279  64.990  0.00  0.00    +0.000 C 
ATOM     13  N   UNL     1      -6.217  49.137  64.914  0.00  0.00    +0.000 NA
ATOM     14  H   UNL     1      -9.371  49.669  64.904  0.00  0.00    +0.000 HD
ATOM     15  H   UNL     1      -8.371  49.044  63.671  0.00  0.00    +0.000 HD
ATOM     16  H   UNL     1      -5.944  49.891  67.962  0.00  0.00    +0.000 HD
ENDBRANCH   1  10
BRANCH   1  17
ATOM     17  C   UNL     1       0.099  47.784  64.888  0.00  0.00    +0.000 C 
BRANCH  17  18
ATOM     18  C   UNL     1       1.646  47.692  64.829  0.00  0.00    +0.000 C 
BRANCH  18  19
ATOM     19  C   UNL     1       2.235  48.490  63.680  0.00  0.00    +0.000 A 
ATOM     20  C   UNL     1       3.347  48.009  62.973  0.00  0.00    +0.000 A 
ATOM     21  C   UNL     1       3.912  48.759  61.934  0.00  0.00    +0.000 A 
ATOM     22  C   UNL     1       3.362  49.994  61.598  0.00  0.00    +0.000 A 
ATOM     23 CL   UNL     1       4.071  50.934  60.344  0.00  0.00    +0.000 Cl
ATOM     24  C   UNL     1       2.243  50.474  62.274  0.00  0.00    +0.000 A 
ATOM     25  C   UNL     1       1.678  49.721  63.306  0.00  0.00    +0.000 A 
ENDBRANCH  18  19
ENDBRANCH  17  18
ENDBRANCH   1  17
BRANCH   1  26
ATOM     26  C   UNL     1       0.602  49.177  66.854  0.00  0.00    +0.000 C 
BRANCH  26  27
ATOM     27  C   UNL     1       0.669  48.614  68.263  0.00  0.00    +0.000 A 
ATOM     28  C   UNL     1      -0.198  49.076  69.264  0.00  0.00    +0.000 A 
ATOM     29  C   UNL     1      -0.130  48.573  70.565  0.00  0.00    +0.000 A 
ATOM     30  C   UNL     1       0.803  47.590  70.884  0.00  0.00    +0.000 A 
ATOM     31  C   UNL     1       1.662  47.110  69.902  0.00  0.00    +0.000 A 
ATOM     32  C   UNL     1       1.592  47.613  68.602  0.00  0.00    +0.000 A 
ENDBRANCH  26  27
ENDBRANCH   1  26
TORSDOF 6
ENDMDL
MODEL 5
REMARK VINA RESULT:      -9.5      3.394      6.728
REMARK  Name = CHEMBL4077482-5.4
REMARK  6 active torsions:
REMARK  status: ('A' for Active; 'I' for Inactive)
REMARK    1  A    between atoms: C_9  and  N_10
REMARK    2  A    between atoms: N_10  and  C_11
REMARK    3  A    between atoms: N_10  and  C_20
REMARK    4  A    between atoms: C_11  and  C_12
REMARK    5  A    between atoms: C_12  and  C_13
REMARK    6  A    between atoms: C_20  and  C_21
REMARK                            x       y       z     vdW  Elec       q    Type
REMARK                         _______ _______ _______ _____ _____    ______ ____
ROOT
ATOM      1  N   UNL     1      -1.974  49.666  68.083  0.00  0.00    +0.000 NA
ENDROOT
BRANCH   1  10
ATOM      2  N   UNL     1       0.160  54.175  61.601  0.00  0.00    +0.000 N 
ATOM      3  C   UNL     1      -0.668  53.315  62.190  0.00  0.00    +0.000 A 
ATOM      4  N   UNL     1      -1.835  52.916  61.697  0.00  0.00    +0.000 NA
ATOM      5  N   UNL     1      -2.238  52.071  62.657  0.00  0.00    +0.000 N 
ATOM      6  C   UNL     1      -1.327  51.983  63.680  0.00  0.00    +0.000 A 
ATOM      7  N   UNL     1      -1.498  51.175  64.760  0.00  0.00    +0.000 N 
ATOM      8  C   UNL     1      -2.802  50.708  65.219  0.00  0.00    +0.000 C 
ATOM      9  C   UNL     1      -3.151  51.350  66.562  0.00  0.00    +0.000 C 
ATOM     10  C   UNL     1      -2.066  51.097  67.643  0.00  0.00    +0.000 C 
ATOM     11  C   UNL     1      -0.765  51.690  67.044  0.00  0.00    +0.000 C 
ATOM     12  C   UNL     1      -0.399  51.022  65.718  0.00  0.00    +0.000 C 
ATOM     13  N   UNL     1      -0.307  52.750  63.373  0.00  0.00    +0.000 NA
ATOM     14  H   UNL     1       0.020  54.334  60.613  0.00  0.00    +0.000 HD
ATOM     15  H   UNL     1       1.126  54.153  61.899  0.00  0.00    +0.000 HD
ATOM     16  H   UNL     1      -3.111  51.574  62.543  0.00  0.00    +0.000 HD
ENDBRANCH   1  10
BRANCH   1  17
ATOM     17  C   UNL     1      -3.151  48.861  67.665  0.00  0.00    +0.000 C 
BRANCH  17  18
ATOM     18  C   UNL     1      -2.851  47.412  67.196  0.00  0.00    +0.000 C 
BRANCH  18  19
ATOM     19  C   UNL     1      -3.441  46.365  68.124  0.00  0.00    +0.000 A 
ATOM     20  C   UNL     1      -4.773  45.952  67.977  0.00  0.00    +0.000 A 
ATOM     21  C   UNL     1      -5.329  45.011  68.852  0.00  0.00    +0.000 A 
ATOM     22  C   UNL     1      -4.551  44.478  69.877  0.00  0.00    +0.000 A 
ATOM     23 CL   UNL     1      -5.238  43.345  70.973  0.00  0.00    +0.000 Cl
ATOM     24  C   UNL     1      -3.219  44.860  70.020  0.00  0.00    +0.000 A 
ATOM     25  C   UNL     1      -2.665  45.794  69.142  0.00  0.00    +0.000 A 
ENDBRANCH  18  19
ENDBRANCH  17  18
ENDBRANCH   1  17
BRANCH   1  26
ATOM     26  C   UNL     1      -0.695  49.017  67.697  0.00  0.00    +0.000 C 
BRANCH  26  27
ATOM     27  C   UNL     1       0.159  48.448  68.816  0.00  0.00    +0.000 A 
ATOM     28  C   UNL     1      -0.169  48.681  70.160  0.00  0.00    +0.000 A 
ATOM     29  C   UNL     1       0.621  48.173  71.193  0.00  0.00    +0.000 A 
ATOM     30  C   UNL     1       1.751  47.414  70.898  0.00  0.00    +0.000 A 
ATOM     31  C   UNL     1       2.084  47.160  69.571  0.00  0.00    +0.000 A 
ATOM     32  C   UNL     1       1.292  47.668  68.541  0.00  0.00    +0.000 A 
ENDBRANCH  26  27
ENDBRANCH   1  26
TORSDOF 6
ENDMDL
MODEL 6
REMARK VINA RESULT:      -9.5      2.042      3.176
REMARK  Name = CHEMBL4077482-5.4
REMARK  6 active torsions:
REMARK  status: ('A' for Active; 'I' for Inactive)
REMARK    1  A    between atoms: C_9  and  N_10
REMARK    2  A    between atoms: N_10  and  C_11
REMARK    3  A    between atoms: N_10  and  C_20
REMARK    4  A    between atoms: C_11  and  C_12
REMARK    5  A    between atoms: C_12  and  C_13
REMARK    6  A    between atoms: C_20  and  C_21
REMARK                            x       y       z     vdW  Elec       q    Type
REMARK                         _______ _______ _______ _____ _____    ______ ____
ROOT
ATOM      1  N   UNL     1      -1.367  47.711  67.788  0.00  0.00    +0.000 NA
ENDROOT
BRANCH   1  10
ATOM      2  N   UNL     1       3.857  47.242  74.063  0.00  0.00    +0.000 N 
ATOM      3  C   UNL     1       3.574  47.047  72.778  0.00  0.00    +0.000 A 
ATOM      4  N   UNL     1       4.447  46.676  71.849  0.00  0.00    +0.000 NA
ATOM      5  N   UNL     1       3.656  46.621  70.768  0.00  0.00    +0.000 N 
ATOM      6  C   UNL     1       2.357  46.951  71.063  0.00  0.00    +0.000 A 
ATOM      7  N   UNL     1       1.360  46.948  70.139  0.00  0.00    +0.000 N 
ATOM      8  C   UNL     1       1.590  47.088  68.705  0.00  0.00    +0.000 C 
ATOM      9  C   UNL     1       1.049  48.430  68.210  0.00  0.00    +0.000 C 
ATOM     10  C   UNL     1      -0.453  48.627  68.547  0.00  0.00    +0.000 C 
ATOM     11  C   UNL     1      -0.532  48.509  70.091  0.00  0.00    +0.000 C 
ATOM     12  C   UNL     1      -0.023  47.153  70.580  0.00  0.00    +0.000 C 
ATOM     13  N   UNL     1       2.291  47.193  72.352  0.00  0.00    +0.000 NA
ATOM     14  H   UNL     1       4.719  46.838  74.403  0.00  0.00    +0.000 HD
ATOM     15  H   UNL     1       3.082  47.205  74.711  0.00  0.00    +0.000 HD
ATOM     16  H   UNL     1       4.048  46.328  69.882  0.00  0.00    +0.000 HD
ENDBRANCH   1  10
BRANCH   1  17
ATOM     17  C   UNL     1      -2.644  47.453  68.504  0.00  0.00    +0.000 C 
BRANCH  17  18
ATOM     18  C   UNL     1      -2.919  45.976  68.889  0.00  0.00    +0.000 C 
BRANCH  18  19
ATOM     19  C   UNL     1      -4.358  45.564  68.632  0.00  0.00    +0.000 A 
ATOM     20  C   UNL     1      -5.030  46.002  67.481  0.00  0.00    +0.000 A 
ATOM     21  C   UNL     1      -6.367  45.652  67.258  0.00  0.00    +0.000 A 
ATOM     22  C   UNL     1      -7.035  44.858  68.187  0.00  0.00    +0.000 A 
ATOM     23 CL   UNL     1      -8.686  44.450  67.933  0.00  0.00    +0.000 Cl
ATOM     24  C   UNL     1      -6.374  44.395  69.322  0.00  0.00    +0.000 A 
ATOM     25  C   UNL     1      -5.038  44.741  69.539  0.00  0.00    +0.000 A 
ENDBRANCH  18  19
ENDBRANCH  17  18
ENDBRANCH   1  17
BRANCH   1  26
ATOM     26  C   UNL     1      -1.597  48.146  66.386  0.00  0.00    +0.000 C 
BRANCH  26  27
ATOM     27  C   UNL     1      -2.860  48.942  66.106  0.00  0.00    +0.000 A 
ATOM     28  C   UNL     1      -3.017  50.242  66.609  0.00  0.00    +0.000 A 
ATOM     29  C   UNL     1      -4.182  50.971  66.368  0.00  0.00    +0.000 A 
ATOM     30  C   UNL     1      -5.209  50.415  65.610  0.00  0.00    +0.000 A 
ATOM     31  C   UNL     1      -5.066  49.131  65.092  0.00  0.00    +0.000 A 
ATOM     32  C   UNL     1      -3.900  48.405  65.333  0.00  0.00    +0.000 A 
ENDBRANCH  26  27
ENDBRANCH   1  26
TORSDOF 6
ENDMDL
MODEL 7
REMARK VINA RESULT:      -9.1      4.894      8.675
REMARK  Name = CHEMBL4077482-5.4
REMARK  6 active torsions:
REMARK  status: ('A' for Active; 'I' for Inactive)
REMARK    1  A    between atoms: C_9  and  N_10
REMARK    2  A    between atoms: N_10  and  C_11
REMARK    3  A    between atoms: N_10  and  C_20
REMARK    4  A    between atoms: C_11  and  C_12
REMARK    5  A    between atoms: C_12  and  C_13
REMARK    6  A    between atoms: C_20  and  C_21
REMARK                            x       y       z     vdW  Elec       q    Type
REMARK                         _______ _______ _______ _____ _____    ______ ____
ROOT
ATOM      1  N   UNL     1      -1.179  49.699  65.528  0.00  0.00    +0.000 NA
ENDROOT
BRANCH   1  10
ATOM      2  N   UNL     1      -9.212  48.170  65.395  0.00  0.00    +0.000 N 
ATOM      3  C   UNL     1      -8.064  48.263  66.061  0.00  0.00    +0.000 A 
ATOM      4  N   UNL     1      -7.935  48.191  67.381  0.00  0.00    +0.000 NA
ATOM      5  N   UNL     1      -6.609  48.331  67.513  0.00  0.00    +0.000 N 
ATOM      6  C   UNL     1      -5.984  48.480  66.300  0.00  0.00    +0.000 A 
ATOM      7  N   UNL     1      -4.638  48.617  66.169  0.00  0.00    +0.000 N 
ATOM      8  C   UNL     1      -3.770  49.109  67.234  0.00  0.00    +0.000 C 
ATOM      9  C   UNL     1      -3.209  50.483  66.868  0.00  0.00    +0.000 C 
ATOM     10  C   UNL     1      -2.460  50.478  65.508  0.00  0.00    +0.000 C 
ATOM     11  C   UNL     1      -3.513  49.994  64.478  0.00  0.00    +0.000 C 
ATOM     12  C   UNL     1      -4.046  48.604  64.828  0.00  0.00    +0.000 C 
ATOM     13  N   UNL     1      -6.904  48.405  65.366  0.00  0.00    +0.000 NA
ATOM     14  H   UNL     1      -9.993  47.766  65.894  0.00  0.00    +0.000 HD
ATOM     15  H   UNL     1      -9.153  47.921  64.417  0.00  0.00    +0.000 HD
ATOM     16  H   UNL     1      -6.196  48.287  68.435  0.00  0.00    +0.000 HD
ENDBRANCH   1  10
BRANCH   1  17
ATOM     17  C   UNL     1      -0.568  49.564  64.180  0.00  0.00    +0.000 C 
BRANCH  17  18
ATOM     18  C   UNL     1       0.820  50.232  63.994  0.00  0.00    +0.000 C 
BRANCH  18  19
ATOM     19  C   UNL     1       1.873  49.259  63.498  0.00  0.00    +0.000 A 
ATOM     20  C   UNL     1       2.764  49.630  62.480  0.00  0.00    +0.000 A 
ATOM     21  C   UNL     1       3.715  48.722  61.997  0.00  0.00    +0.000 A 
ATOM     22  C   UNL     1       3.779  47.440  62.536  0.00  0.00    +0.000 A 
ATOM     23 CL   UNL     1       4.925  46.311  61.926  0.00  0.00    +0.000 Cl
ATOM     24  C   UNL     1       2.918  47.064  63.565  0.00  0.00    +0.000 A 
ATOM     25  C   UNL     1       1.974  47.973  64.048  0.00  0.00    +0.000 A 
ENDBRANCH  18  19
ENDBRANCH  17  18
ENDBRANCH   1  17
BRANCH   1  26
ATOM     26  C   UNL     1      -0.204  50.204  66.529  0.00  0.00    +0.000 C 
BRANCH  26  27
ATOM     27  C   UNL     1       0.207  49.251  67.638  0.00  0.00    +0.000 A 
ATOM     28  C   UNL     1      -0.398  49.314  68.901  0.00  0.00    +0.000 A 
ATOM     29  C   UNL     1      -0.013  48.451  69.929  0.00  0.00    +0.000 A 
ATOM     30  C   UNL     1       0.981  47.501  69.706  0.00  0.00    +0.000 A 
ATOM     31  C   UNL     1       1.584  47.414  68.455  0.00  0.00    +0.000 A 
ATOM     32  C   UNL     1       1.196  48.277  67.430  0.00  0.00    +0.000 A 
ENDBRANCH  26  27
ENDBRANCH   1  26
TORSDOF 6
ENDMDL
MODEL 8
REMARK VINA RESULT:      -9.0      3.251      5.742
REMARK  Name = CHEMBL4077482-5.4
REMARK  6 active torsions:
REMARK  status: ('A' for Active; 'I' for Inactive)
REMARK    1  A    between atoms: C_9  and  N_10
REMARK    2  A    between atoms: N_10  and  C_11
REMARK    3  A    between atoms: N_10  and  C_20
REMARK    4  A    between atoms: C_11  and  C_12
REMARK    5  A    between atoms: C_12  and  C_13
REMARK    6  A    between atoms: C_20  and  C_21
REMARK                            x       y       z     vdW  Elec       q    Type
REMARK                         _______ _______ _______ _____ _____    ______ ____
ROOT
ATOM      1  N   UNL     1      -1.960  49.201  66.706  0.00  0.00    +0.000 NA
ENDROOT
BRANCH   1  10
ATOM      2  N   UNL     1       3.947  50.160  61.131  0.00  0.00    +0.000 N 
ATOM      3  C   UNL     1       3.302  49.400  62.013  0.00  0.00    +0.000 A 
ATOM      4  N   UNL     1       3.485  48.096  62.179  0.00  0.00    +0.000 NA
ATOM      5  N   UNL     1       2.616  47.843  63.168  0.00  0.00    +0.000 N 
ATOM      6  C   UNL     1       1.945  48.974  63.565  0.00  0.00    +0.000 A 
ATOM      7  N   UNL     1       1.027  48.980  64.567  0.00  0.00    +0.000 N 
ATOM      8  C   UNL     1       0.289  47.795  64.992  0.00  0.00    +0.000 C 
ATOM      9  C   UNL     1      -1.189  47.932  64.626  0.00  0.00    +0.000 C 
ATOM     10  C   UNL     1      -1.831  49.217  65.211  0.00  0.00    +0.000 C 
ATOM     11  C   UNL     1      -0.986  50.382  64.633  0.00  0.00    +0.000 C 
ATOM     12  C   UNL     1       0.485  50.261  65.030  0.00  0.00    +0.000 C 
ATOM     13  N   UNL     1       2.402  49.978  62.852  0.00  0.00    +0.000 NA
ATOM     14  H   UNL     1       4.803  49.782  60.748  0.00  0.00    +0.000 HD
ATOM     15  H   UNL     1       3.961  51.154  61.310  0.00  0.00    +0.000 HD
ATOM     16  H   UNL     1       2.550  46.906  63.541  0.00  0.00    +0.000 HD
ENDBRANCH   1  10
BRANCH   1  17
ATOM     17  C   UNL     1      -2.204  47.838  67.245  0.00  0.00    +0.000 C 
BRANCH  17  18
ATOM     18  C   UNL     1      -3.616  47.249  66.988  0.00  0.00    +0.000 C 
BRANCH  18  19
ATOM     19  C   UNL     1      -4.034  46.250  68.052  0.00  0.00    +0.000 A 
ATOM     20  C   UNL     1      -3.120  45.820  69.025  0.00  0.00    +0.000 A 
ATOM     21  C   UNL     1      -3.493  44.874  69.987  0.00  0.00    +0.000 A 
ATOM     22  C   UNL     1      -4.786  44.357  69.979  0.00  0.00    +0.000 A 
ATOM     23 CL   UNL     1      -5.241  43.171  71.139  0.00  0.00    +0.000 Cl
ATOM     24  C   UNL     1      -5.713  44.792  69.035  0.00  0.00    +0.000 A 
ATOM     25  C   UNL     1      -5.340  45.741  68.080  0.00  0.00    +0.000 A 
ENDBRANCH  18  19
ENDBRANCH  17  18
ENDBRANCH   1  17
BRANCH   1  26
ATOM     26  C   UNL     1      -0.831  49.875  67.397  0.00  0.00    +0.000 C 
BRANCH  26  27
ATOM     27  C   UNL     1      -0.268  49.192  68.631  0.00  0.00    +0.000 A 
ATOM     28  C   UNL     1      -0.830  49.415  69.897  0.00  0.00    +0.000 A 
ATOM     29  C   UNL     1      -0.306  48.802  71.036  0.00  0.00    +0.000 A 
ATOM     30  C   UNL     1       0.787  47.947  70.927  0.00  0.00    +0.000 A 
ATOM     31  C   UNL     1       1.351  47.703  69.679  0.00  0.00    +0.000 A 
ATOM     32  C   UNL     1       0.824  48.316  68.541  0.00  0.00    +0.000 A 
ENDBRANCH  26  27
ENDBRANCH   1  26
TORSDOF 6
ENDMDL
MODEL 9
REMARK VINA RESULT:      -8.8      3.983      7.089
REMARK  Name = CHEMBL4077482-5.4
REMARK  6 active torsions:
REMARK  status: ('A' for Active; 'I' for Inactive)
REMARK    1  A    between atoms: C_9  and  N_10
REMARK    2  A    between atoms: N_10  and  C_11
REMARK    3  A    between atoms: N_10  and  C_20
REMARK    4  A    between atoms: C_11  and  C_12
REMARK    5  A    between atoms: C_12  and  C_13
REMARK    6  A    between atoms: C_20  and  C_21
REMARK                            x       y       z     vdW  Elec       q    Type
REMARK                         _______ _______ _______ _____ _____    ______ ____
ROOT
ATOM      1  N   UNL     1      -2.460  50.424  66.182  0.00  0.00    +0.000 NA
ENDROOT
BRANCH   1  10
ATOM      2  N   UNL     1       2.882  46.337  70.835  0.00  0.00    +0.000 N 
ATOM      3  C   UNL     1       1.889  47.215  70.714  0.00  0.00    +0.000 A 
ATOM      4  N   UNL     1       1.225  47.765  71.723  0.00  0.00    +0.000 NA
ATOM      5  N   UNL     1       0.367  48.554  71.061  0.00  0.00    +0.000 N 
ATOM      6  C   UNL     1       0.530  48.463  69.701  0.00  0.00    +0.000 A 
ATOM      7  N   UNL     1      -0.207  49.183  68.814  0.00  0.00    +0.000 N 
ATOM      8  C   UNL     1      -1.526  49.727  69.117  0.00  0.00    +0.000 C 
ATOM      9  C   UNL     1      -2.598  49.003  68.302  0.00  0.00    +0.000 C 
ATOM     10  C   UNL     1      -2.321  49.054  66.776  0.00  0.00    +0.000 C 
ATOM     11  C   UNL     1      -0.927  48.397  66.604  0.00  0.00    +0.000 C 
ATOM     12  C   UNL     1       0.149  49.144  67.393  0.00  0.00    +0.000 C 
ATOM     13  N   UNL     1       1.523  47.634  69.474  0.00  0.00    +0.000 NA
ATOM     14  H   UNL     1       3.329  46.282  71.740  0.00  0.00    +0.000 HD
ATOM     15  H   UNL     1       3.504  46.240  70.044  0.00  0.00    +0.000 HD
ATOM     16  H   UNL     1      -0.270  49.140  71.584  0.00  0.00    +0.000 HD
ENDBRANCH   1  10
BRANCH   1  17
ATOM     17  C   UNL     1      -2.092  50.465  64.743  0.00  0.00    +0.000 C 
BRANCH  17  18
ATOM     18  C   UNL     1      -1.247  51.686  64.293  0.00  0.00    +0.000 C 
BRANCH  18  19
ATOM     19  C   UNL     1      -0.025  51.285  63.488  0.00  0.00    +0.000 A 
ATOM     20  C   UNL     1       0.730  50.159  63.850  0.00  0.00    +0.000 A 
ATOM     21  C   UNL     1       1.877  49.805  63.128  0.00  0.00    +0.000 A 
ATOM     22  C   UNL     1       2.270  50.578  62.039  0.00  0.00    +0.000 A 
ATOM     23 CL   UNL     1       3.695  50.166  61.168  0.00  0.00    +0.000 Cl
ATOM     24  C   UNL     1       1.518  51.684  61.651  0.00  0.00    +0.000 A 
ATOM     25  C   UNL     1       0.371  52.031  62.369  0.00  0.00    +0.000 A 
ENDBRANCH  18  19
ENDBRANCH  17  18
ENDBRANCH   1  17
BRANCH   1  26
ATOM     26  C   UNL     1      -3.791  51.036  66.430  0.00  0.00    +0.000 C 
BRANCH  26  27
ATOM     27  C   UNL     1      -4.922  50.635  65.499  0.00  0.00    +0.000 A 
ATOM     28  C   UNL     1      -5.366  51.505  64.492  0.00  0.00    +0.000 A 
ATOM     29  C   UNL     1      -6.416  51.148  63.644  0.00  0.00    +0.000 A 
ATOM     30  C   UNL     1      -7.034  49.907  63.783  0.00  0.00    +0.000 A 
ATOM     31  C   UNL     1      -6.598  49.026  64.768  0.00  0.00    +0.000 A 
ATOM     32  C   UNL     1      -5.548  49.385  65.613  0.00  0.00    +0.000 A 
ENDBRANCH  26  27
ENDBRANCH   1  26
TORSDOF 6
ENDMDL
