MODEL 1
REMARK VINA RESULT:      -9.0      0.000      0.000
REMARK  Name = CHEMBL4081105-1111
REMARK  6 active torsions:
REMARK  status: ('A' for Active; 'I' for Inactive)
REMARK    1  A    between atoms: C_1  and  C_2
REMARK    2  A    between atoms: C_5  and  C_6
REMARK    3  A    between atoms: C_6  and  C_7
REMARK    4  A    between atoms: C_7  and  N_8
REMARK    5  A    between atoms: N_8  and  C_9
REMARK    6  A    between atoms: N_8  and  C_10
REMARK                            x       y       z     vdW  Elec       q    Type
REMARK                         _______ _______ _______ _____ _____    ______ ____
ROOT
ATOM      1  C   UNL     1      -3.518  46.468  68.069  0.00  0.00    +0.000 C 
ATOM      2  C   UNL     1      -2.617  46.210  69.295  0.00  0.00    +0.000 C 
ATOM      3  C   UNL     1      -2.899  44.812  69.855  0.00  0.00    +0.000 C 
ATOM      4  N   UNL     1      -4.329  44.652  70.129  0.00  0.00    +0.000 N 
ATOM      5  C   UNL     1      -4.722  44.121  71.312  0.00  0.00    +0.000 A 
ATOM      6  N   UNL     1      -4.015  43.947  72.408  0.00  0.00    +0.000 NA
ATOM      7  C   UNL     1      -4.906  43.434  73.290  0.00  0.00    +0.000 A 
ATOM      8  N   UNL     1      -4.511  43.199  74.537  0.00  0.00    +0.000 N 
ATOM      9  N   UNL     1      -6.139  43.260  72.832  0.00  0.00    +0.000 NA
ATOM     10  N   UNL     1      -5.992  43.677  71.563  0.00  0.00    +0.000 N 
ATOM     11  C   UNL     1      -5.252  44.959  69.051  0.00  0.00    +0.000 C 
ATOM     12  C   UNL     1      -4.983  46.371  68.545  0.00  0.00    +0.000 C 
ATOM     13  H   UNL     1      -3.675  43.683  74.835  0.00  0.00    +0.000 HD
ATOM     14  H   UNL     1      -5.242  43.155  75.236  0.00  0.00    +0.000 HD
ATOM     15  H   UNL     1      -6.783  43.639  70.943  0.00  0.00    +0.000 HD
ENDROOT
BRANCH   1  16
ATOM     16  N   UNL     1      -3.174  47.669  67.265  0.00  0.00    +0.000 NA
ATOM     17  C   UNL     1      -3.869  47.770  65.987  0.00  0.00    +0.000 C 
BRANCH  16  18
ATOM     18  C   UNL     1      -1.705  47.775  67.124  0.00  0.00    +0.000 C 
BRANCH  18  19
ATOM     19  C   UNL     1      -1.006  48.960  67.801  0.00  0.00    +0.000 C 
BRANCH  19  24
ATOM     20  C   UNL     1       2.963  46.803  71.498  0.00  0.00    +0.000 C 
ATOM     21  C   UNL     1       1.947  47.348  70.538  0.00  0.00    +0.000 A 
ATOM     22  C   UNL     1       2.039  47.092  69.167  0.00  0.00    +0.000 A 
ATOM     23  C   UNL     1       1.096  47.626  68.281  0.00  0.00    +0.000 A 
ATOM     24  C   UNL     1       0.050  48.430  68.753  0.00  0.00    +0.000 A 
ATOM     25  C   UNL     1      -0.052  48.666  70.129  0.00  0.00    +0.000 A 
ATOM     26  C   UNL     1       0.889  48.132  71.013  0.00  0.00    +0.000 A 
ENDBRANCH  19  24
ENDBRANCH  18  19
ENDBRANCH  16  18
ENDBRANCH   1  16
TORSDOF 4
ENDMDL
MODEL 2
REMARK VINA RESULT:      -8.5      3.058      4.271
REMARK  Name = CHEMBL4081105-1111
REMARK  6 active torsions:
REMARK  status: ('A' for Active; 'I' for Inactive)
REMARK    1  A    between atoms: C_1  and  C_2
REMARK    2  A    between atoms: C_5  and  C_6
REMARK    3  A    between atoms: C_6  and  C_7
REMARK    4  A    between atoms: C_7  and  N_8
REMARK    5  A    between atoms: N_8  and  C_9
REMARK    6  A    between atoms: N_8  and  C_10
REMARK                            x       y       z     vdW  Elec       q    Type
REMARK                         _______ _______ _______ _____ _____    ______ ____
ROOT
ATOM      1  C   UNL     1      -1.128  47.441  68.902  0.00  0.00    +0.000 C 
ATOM      2  C   UNL     1      -0.848  47.383  70.418  0.00  0.00    +0.000 C 
ATOM      3  C   UNL     1      -0.949  45.932  70.905  0.00  0.00    +0.000 C 
ATOM      4  N   UNL     1      -2.238  45.354  70.518  0.00  0.00    +0.000 N 
ATOM      5  C   UNL     1      -2.956  44.666  71.437  0.00  0.00    +0.000 A 
ATOM      6  N   UNL     1      -2.807  44.640  72.745  0.00  0.00    +0.000 NA
ATOM      7  C   UNL     1      -3.816  43.842  73.171  0.00  0.00    +0.000 A 
ATOM      8  N   UNL     1      -3.981  43.660  74.477  0.00  0.00    +0.000 N 
ATOM      9  N   UNL     1      -4.603  43.349  72.223  0.00  0.00    +0.000 NA
ATOM     10  N   UNL     1      -4.021  43.863  71.127  0.00  0.00    +0.000 N 
ATOM     11  C   UNL     1      -2.616  45.445  69.120  0.00  0.00    +0.000 C 
ATOM     12  C   UNL     1      -2.556  46.902  68.675  0.00  0.00    +0.000 C 
ATOM     13  H   UNL     1      -3.543  44.346  75.078  0.00  0.00    +0.000 HD
ATOM     14  H   UNL     1      -4.903  43.368  74.773  0.00  0.00    +0.000 HD
ATOM     15  H   UNL     1      -4.398  43.635  70.223  0.00  0.00    +0.000 HD
ENDROOT
BRANCH   1  16
ATOM     16  N   UNL     1      -0.810  48.735  68.244  0.00  0.00    +0.000 NA
ATOM     17  C   UNL     1      -1.856  49.248  67.366  0.00  0.00    +0.000 C 
BRANCH  16  18
ATOM     18  C   UNL     1       0.504  48.646  67.571  0.00  0.00    +0.000 C 
BRANCH  18  19
ATOM     19  C   UNL     1       0.679  47.581  66.482  0.00  0.00    +0.000 C 
BRANCH  19  24
ATOM     20  C   UNL     1       2.916  49.996  61.663  0.00  0.00    +0.000 C 
ATOM     21  C   UNL     1       2.331  49.385  62.901  0.00  0.00    +0.000 A 
ATOM     22  C   UNL     1       1.364  50.059  63.652  0.00  0.00    +0.000 A 
ATOM     23  C   UNL     1       0.843  49.485  64.817  0.00  0.00    +0.000 A 
ATOM     24  C   UNL     1       1.286  48.229  65.253  0.00  0.00    +0.000 A 
ATOM     25  C   UNL     1       2.238  47.547  64.486  0.00  0.00    +0.000 A 
ATOM     26  C   UNL     1       2.758  48.120  63.323  0.00  0.00    +0.000 A 
ENDBRANCH  19  24
ENDBRANCH  18  19
ENDBRANCH  16  18
ENDBRANCH   1  16
TORSDOF 4
ENDMDL
MODEL 3
REMARK VINA RESULT:      -8.5      3.704      5.213
REMARK  Name = CHEMBL4081105-1111
REMARK  6 active torsions:
REMARK  status: ('A' for Active; 'I' for Inactive)
REMARK    1  A    between atoms: C_1  and  C_2
REMARK    2  A    between atoms: C_5  and  C_6
REMARK    3  A    between atoms: C_6  and  C_7
REMARK    4  A    between atoms: C_7  and  N_8
REMARK    5  A    between atoms: N_8  and  C_9
REMARK    6  A    between atoms: N_8  and  C_10
REMARK                            x       y       z     vdW  Elec       q    Type
REMARK                         _______ _______ _______ _____ _____    ______ ____
ROOT
ATOM      1  C   UNL     1      -0.676  49.148  67.838  0.00  0.00    +0.000 C 
ATOM      2  C   UNL     1       0.073  48.445  68.990  0.00  0.00    +0.000 C 
ATOM      3  C   UNL     1      -0.226  46.942  68.955  0.00  0.00    +0.000 C 
ATOM      4  N   UNL     1      -1.672  46.710  68.961  0.00  0.00    +0.000 N 
ATOM      5  C   UNL     1      -2.190  45.785  69.803  0.00  0.00    +0.000 A 
ATOM      6  N   UNL     1      -1.622  45.209  70.841  0.00  0.00    +0.000 NA
ATOM      7  C   UNL     1      -2.597  44.417  71.348  0.00  0.00    +0.000 A 
ATOM      8  N   UNL     1      -2.354  43.733  72.461  0.00  0.00    +0.000 N 
ATOM      9  N   UNL     1      -3.756  44.440  70.700  0.00  0.00    +0.000 NA
ATOM     10  N   UNL     1      -3.465  45.295  69.706  0.00  0.00    +0.000 N 
ATOM     11  C   UNL     1      -2.462  47.406  67.961  0.00  0.00    +0.000 C 
ATOM     12  C   UNL     1      -2.184  48.901  68.049  0.00  0.00    +0.000 C 
ATOM     13  H   UNL     1      -1.580  44.063  73.022  0.00  0.00    +0.000 HD
ATOM     14  H   UNL     1      -3.165  43.443  72.992  0.00  0.00    +0.000 HD
ATOM     15  H   UNL     1      -4.170  45.498  69.017  0.00  0.00    +0.000 HD
ENDROOT
BRANCH   1  16
ATOM     16  N   UNL     1      -0.278  50.558  67.586  0.00  0.00    +0.000 NA
ATOM     17  C   UNL     1      -1.336  51.540  67.796  0.00  0.00    +0.000 C 
BRANCH  16  18
ATOM     18  C   UNL     1       0.345  50.671  66.249  0.00  0.00    +0.000 C 
BRANCH  18  19
ATOM     19  C   UNL     1       0.072  49.553  65.236  0.00  0.00    +0.000 C 
BRANCH  19  24
ATOM     20  C   UNL     1       4.232  49.449  61.144  0.00  0.00    +0.000 C 
ATOM     21  C   UNL     1       3.156  49.484  62.188  0.00  0.00    +0.000 A 
ATOM     22  C   UNL     1       2.181  50.486  62.186  0.00  0.00    +0.000 A 
ATOM     23  C   UNL     1       1.196  50.518  63.179  0.00  0.00    +0.000 A 
ATOM     24  C   UNL     1       1.174  49.552  64.194  0.00  0.00    +0.000 A 
ATOM     25  C   UNL     1       2.138  48.537  64.180  0.00  0.00    +0.000 A 
ATOM     26  C   UNL     1       3.121  48.505  63.188  0.00  0.00    +0.000 A 
ENDBRANCH  19  24
ENDBRANCH  18  19
ENDBRANCH  16  18
ENDBRANCH   1  16
TORSDOF 4
ENDMDL
MODEL 4
REMARK VINA RESULT:      -8.3      4.458      6.068
REMARK  Name = CHEMBL4081105-1111
REMARK  6 active torsions:
REMARK  status: ('A' for Active; 'I' for Inactive)
REMARK    1  A    between atoms: C_1  and  C_2
REMARK    2  A    between atoms: C_5  and  C_6
REMARK    3  A    between atoms: C_6  and  C_7
REMARK    4  A    between atoms: C_7  and  N_8
REMARK    5  A    between atoms: N_8  and  C_9
REMARK    6  A    between atoms: N_8  and  C_10
REMARK                            x       y       z     vdW  Elec       q    Type
REMARK                         _______ _______ _______ _____ _____    ______ ____
ROOT
ATOM      1  C   UNL     1      -1.237  49.520  66.444  0.00  0.00    +0.000 C 
ATOM      2  C   UNL     1      -1.821  48.104  66.256  0.00  0.00    +0.000 C 
ATOM      3  C   UNL     1      -2.631  47.713  67.497  0.00  0.00    +0.000 C 
ATOM      4  N   UNL     1      -1.816  47.860  68.705  0.00  0.00    +0.000 N 
ATOM      5  C   UNL     1      -1.803  46.862  69.620  0.00  0.00    +0.000 A 
ATOM      6  N   UNL     1      -2.219  45.620  69.488  0.00  0.00    +0.000 NA
ATOM      7  C   UNL     1      -1.925  45.050  70.680  0.00  0.00    +0.000 A 
ATOM      8  N   UNL     1      -2.170  43.755  70.850  0.00  0.00    +0.000 N 
ATOM      9  N   UNL     1      -1.350  45.844  71.575  0.00  0.00    +0.000 NA
ATOM     10  N   UNL     1      -1.308  46.998  70.889  0.00  0.00    +0.000 N 
ATOM     11  C   UNL     1      -1.158  49.137  68.913  0.00  0.00    +0.000 C 
ATOM     12  C   UNL     1      -0.321  49.480  67.686  0.00  0.00    +0.000 C 
ATOM     13  H   UNL     1      -2.282  43.212  70.004  0.00  0.00    +0.000 HD
ATOM     14  H   UNL     1      -1.643  43.293  71.579  0.00  0.00    +0.000 HD
ATOM     15  H   UNL     1      -0.931  47.817  71.336  0.00  0.00    +0.000 HD
ENDROOT
BRANCH   1  16
ATOM     16  N   UNL     1      -0.651  50.136  65.226  0.00  0.00    +0.000 NA
ATOM     17  C   UNL     1      -1.332  49.797  63.981  0.00  0.00    +0.000 C 
BRANCH  16  18
ATOM     18  C   UNL     1       0.801  49.859  65.172  0.00  0.00    +0.000 C 
BRANCH  18  19
ATOM     19  C   UNL     1       1.259  48.578  64.464  0.00  0.00    +0.000 C 
BRANCH  19  24
ATOM     20  C   UNL     1       5.036  50.099  60.281  0.00  0.00    +0.000 C 
ATOM     21  C   UNL     1       4.075  49.700  61.361  0.00  0.00    +0.000 A 
ATOM     22  C   UNL     1       4.286  48.550  62.128  0.00  0.00    +0.000 A 
ATOM     23  C   UNL     1       3.369  48.178  63.117  0.00  0.00    +0.000 A 
ATOM     24  C   UNL     1       2.222  48.948  63.352  0.00  0.00    +0.000 A 
ATOM     25  C   UNL     1       2.025  50.111  62.598  0.00  0.00    +0.000 A 
ATOM     26  C   UNL     1       2.941  50.482  61.611  0.00  0.00    +0.000 A 
ENDBRANCH  19  24
ENDBRANCH  18  19
ENDBRANCH  16  18
ENDBRANCH   1  16
TORSDOF 4
ENDMDL
MODEL 5
REMARK VINA RESULT:      -8.2      5.220      7.366
REMARK  Name = CHEMBL4081105-1111
REMARK  6 active torsions:
REMARK  status: ('A' for Active; 'I' for Inactive)
REMARK    1  A    between atoms: C_1  and  C_2
REMARK    2  A    between atoms: C_5  and  C_6
REMARK    3  A    between atoms: C_6  and  C_7
REMARK    4  A    between atoms: C_7  and  N_8
REMARK    5  A    between atoms: N_8  and  C_9
REMARK    6  A    between atoms: N_8  and  C_10
REMARK                            x       y       z     vdW  Elec       q    Type
REMARK                         _______ _______ _______ _____ _____    ______ ____
ROOT
ATOM      1  C   UNL     1      -0.614  51.436  65.061  0.00  0.00    +0.000 C 
ATOM      2  C   UNL     1      -0.619  49.905  65.261  0.00  0.00    +0.000 C 
ATOM      3  C   UNL     1      -1.665  49.528  66.316  0.00  0.00    +0.000 C 
ATOM      4  N   UNL     1      -1.440  50.285  67.550  0.00  0.00    +0.000 N 
ATOM      5  C   UNL     1      -1.457  49.635  68.737  0.00  0.00    +0.000 A 
ATOM      6  N   UNL     1      -1.389  48.340  68.966  0.00  0.00    +0.000 NA
ATOM      7  C   UNL     1      -1.393  48.248  70.317  0.00  0.00    +0.000 A 
ATOM      8  N   UNL     1      -1.271  47.050  70.879  0.00  0.00    +0.000 N 
ATOM      9  N   UNL     1      -1.464  49.399  70.975  0.00  0.00    +0.000 NA
ATOM     10  N   UNL     1      -1.532  50.265  69.950  0.00  0.00    +0.000 N 
ATOM     11  C   UNL     1      -1.335  51.729  67.435  0.00  0.00    +0.000 C 
ATOM     12  C   UNL     1      -0.255  52.077  66.418  0.00  0.00    +0.000 C 
ATOM     13  H   UNL     1      -0.890  46.322  70.289  0.00  0.00    +0.000 HD
ATOM     14  H   UNL     1      -0.934  47.037  71.833  0.00  0.00    +0.000 HD
ATOM     15  H   UNL     1      -1.619  51.247  70.148  0.00  0.00    +0.000 HD
ENDROOT
BRANCH   1  16
ATOM     16  N   UNL     1       0.158  51.923  63.888  0.00  0.00    +0.000 NA
ATOM     17  C   UNL     1      -0.587  52.793  62.984  0.00  0.00    +0.000 C 
BRANCH  16  18
ATOM     18  C   UNL     1       0.783  50.779  63.189  0.00  0.00    +0.000 C 
BRANCH  18  19
ATOM     19  C   UNL     1       1.865  51.085  62.145  0.00  0.00    +0.000 C 
BRANCH  19  24
ATOM     20  C   UNL     1       5.541  46.559  61.885  0.00  0.00    +0.000 C 
ATOM     21  C   UNL     1       4.601  47.726  61.939  0.00  0.00    +0.000 A 
ATOM     22  C   UNL     1       4.749  48.815  61.074  0.00  0.00    +0.000 A 
ATOM     23  C   UNL     1       3.877  49.906  61.152  0.00  0.00    +0.000 A 
ATOM     24  C   UNL     1       2.846  49.929  62.100  0.00  0.00    +0.000 A 
ATOM     25  C   UNL     1       2.686  48.828  62.950  0.00  0.00    +0.000 A 
ATOM     26  C   UNL     1       3.557  47.738  62.872  0.00  0.00    +0.000 A 
ENDBRANCH  19  24
ENDBRANCH  18  19
ENDBRANCH  16  18
ENDBRANCH   1  16
TORSDOF 4
ENDMDL
MODEL 6
REMARK VINA RESULT:      -7.7      3.631      6.817
REMARK  Name = CHEMBL4081105-1111
REMARK  6 active torsions:
REMARK  status: ('A' for Active; 'I' for Inactive)
REMARK    1  A    between atoms: C_1  and  C_2
REMARK    2  A    between atoms: C_5  and  C_6
REMARK    3  A    between atoms: C_6  and  C_7
REMARK    4  A    between atoms: C_7  and  N_8
REMARK    5  A    between atoms: N_8  and  C_9
REMARK    6  A    between atoms: N_8  and  C_10
REMARK                            x       y       z     vdW  Elec       q    Type
REMARK                         _______ _______ _______ _____ _____    ______ ____
ROOT
ATOM      1  C   UNL     1      -4.482  49.026  66.975  0.00  0.00    +0.000 C 
ATOM      2  C   UNL     1      -4.350  49.043  68.512  0.00  0.00    +0.000 C 
ATOM      3  C   UNL     1      -3.019  49.692  68.907  0.00  0.00    +0.000 C 
ATOM      4  N   UNL     1      -1.906  49.027  68.226  0.00  0.00    +0.000 N 
ATOM      5  C   UNL     1      -0.808  48.677  68.937  0.00  0.00    +0.000 A 
ATOM      6  N   UNL     1      -0.665  48.604  70.243  0.00  0.00    +0.000 NA
ATOM      7  C   UNL     1       0.604  48.158  70.407  0.00  0.00    +0.000 A 
ATOM      8  N   UNL     1       1.045  47.916  71.637  0.00  0.00    +0.000 N 
ATOM      9  N   UNL     1       1.290  47.944  69.291  0.00  0.00    +0.000 NA
ATOM     10  N   UNL     1       0.382  48.308  68.370  0.00  0.00    +0.000 N 
ATOM     11  C   UNL     1      -1.994  48.892  66.782  0.00  0.00    +0.000 C 
ATOM     12  C   UNL     1      -3.302  48.200  66.419  0.00  0.00    +0.000 C 
ATOM     13  H   UNL     1       0.334  47.794  72.345  0.00  0.00    +0.000 HD
ATOM     14  H   UNL     1       1.828  47.280  71.712  0.00  0.00    +0.000 HD
ATOM     15  H   UNL     1       0.635  48.272  67.397  0.00  0.00    +0.000 HD
ENDROOT
BRANCH   1  16
ATOM     16  N   UNL     1      -5.827  48.670  66.453  0.00  0.00    +0.000 NA
ATOM     17  C   UNL     1      -6.702  49.806  66.189  0.00  0.00    +0.000 C 
BRANCH  16  18
ATOM     18  C   UNL     1      -6.456  47.662  67.335  0.00  0.00    +0.000 C 
BRANCH  18  19
ATOM     19  C   UNL     1      -6.632  46.242  66.785  0.00  0.00    +0.000 C 
BRANCH  19  24
ATOM     20  C   UNL     1      -5.909  42.524  71.226  0.00  0.00    +0.000 C 
ATOM     21  C   UNL     1      -6.108  43.477  70.085  0.00  0.00    +0.000 A 
ATOM     22  C   UNL     1      -7.269  43.439  69.307  0.00  0.00    +0.000 A 
ATOM     23  C   UNL     1      -7.431  44.319  68.232  0.00  0.00    +0.000 A 
ATOM     24  C   UNL     1      -6.431  45.248  67.913  0.00  0.00    +0.000 A 
ATOM     25  C   UNL     1      -5.280  45.298  68.708  0.00  0.00    +0.000 A 
ATOM     26  C   UNL     1      -5.118  44.420  69.782  0.00  0.00    +0.000 A 
ENDBRANCH  19  24
ENDBRANCH  18  19
ENDBRANCH  16  18
ENDBRANCH   1  16
TORSDOF 4
ENDMDL
MODEL 7
REMARK VINA RESULT:      -7.6      7.761     11.451
REMARK  Name = CHEMBL4081105-1111
REMARK  6 active torsions:
REMARK  status: ('A' for Active; 'I' for Inactive)
REMARK    1  A    between atoms: C_1  and  C_2
REMARK    2  A    between atoms: C_5  and  C_6
REMARK    3  A    between atoms: C_6  and  C_7
REMARK    4  A    between atoms: C_7  and  N_8
REMARK    5  A    between atoms: N_8  and  C_9
REMARK    6  A    between atoms: N_8  and  C_10
REMARK                            x       y       z     vdW  Elec       q    Type
REMARK                         _______ _______ _______ _____ _____    ______ ____
ROOT
ATOM      1  C   UNL     1       2.940  48.960  62.677  0.00  0.00    +0.000 C 
ATOM      2  C   UNL     1       3.434  47.516  62.450  0.00  0.00    +0.000 C 
ATOM      3  C   UNL     1       4.853  47.543  61.871  0.00  0.00    +0.000 C 
ATOM      4  N   UNL     1       4.896  48.378  60.668  0.00  0.00    +0.000 N 
ATOM      5  C   UNL     1       5.520  47.912  59.561  0.00  0.00    +0.000 A 
ATOM      6  N   UNL     1       5.896  46.681  59.286  0.00  0.00    +0.000 NA
ATOM      7  C   UNL     1       6.417  46.771  58.039  0.00  0.00    +0.000 A 
ATOM      8  N   UNL     1       6.839  45.663  57.439  0.00  0.00    +0.000 N 
ATOM      9  N   UNL     1       6.406  47.981  57.493  0.00  0.00    +0.000 NA
ATOM     10  N   UNL     1       5.858  48.695  58.490  0.00  0.00    +0.000 N 
ATOM     11  C   UNL     1       4.367  49.727  60.775  0.00  0.00    +0.000 C 
ATOM     12  C   UNL     1       2.940  49.669  61.306  0.00  0.00    +0.000 C 
ATOM     13  H   UNL     1       6.483  44.794  57.814  0.00  0.00    +0.000 HD
ATOM     14  H   UNL     1       6.890  45.694  56.429  0.00  0.00    +0.000 HD
ATOM     15  H   UNL     1       5.740  49.687  58.369  0.00  0.00    +0.000 HD
ENDROOT
BRANCH   1  16
ATOM     16  N   UNL     1       1.693  49.090  63.475  0.00  0.00    +0.000 NA
ATOM     17  C   UNL     1       1.037  50.389  63.379  0.00  0.00    +0.000 C 
BRANCH  16  18
ATOM     18  C   UNL     1       1.948  48.684  64.874  0.00  0.00    +0.000 C 
BRANCH  18  19
ATOM     19  C   UNL     1       1.062  47.584  65.471  0.00  0.00    +0.000 C 
BRANCH  19  24
ATOM     20  C   UNL     1       0.557  48.292  71.243  0.00  0.00    +0.000 C 
ATOM     21  C   UNL     1       0.693  48.098  69.762  0.00  0.00    +0.000 A 
ATOM     22  C   UNL     1       1.584  47.158  69.235  0.00  0.00    +0.000 A 
ATOM     23  C   UNL     1       1.716  47.004  67.851  0.00  0.00    +0.000 A 
ATOM     24  C   UNL     1       0.963  47.792  66.970  0.00  0.00    +0.000 A 
ATOM     25  C   UNL     1       0.055  48.716  67.501  0.00  0.00    +0.000 A 
ATOM     26  C   UNL     1      -0.077  48.870  68.883  0.00  0.00    +0.000 A 
ENDBRANCH  19  24
ENDBRANCH  18  19
ENDBRANCH  16  18
ENDBRANCH   1  16
TORSDOF 4
ENDMDL
MODEL 8
REMARK VINA RESULT:      -7.4      6.338      8.664
REMARK  Name = CHEMBL4081105-1111
REMARK  6 active torsions:
REMARK  status: ('A' for Active; 'I' for Inactive)
REMARK    1  A    between atoms: C_1  and  C_2
REMARK    2  A    between atoms: C_5  and  C_6
REMARK    3  A    between atoms: C_6  and  C_7
REMARK    4  A    between atoms: C_7  and  N_8
REMARK    5  A    between atoms: N_8  and  C_9
REMARK    6  A    between atoms: N_8  and  C_10
REMARK                            x       y       z     vdW  Elec       q    Type
REMARK                         _______ _______ _______ _____ _____    ______ ____
ROOT
ATOM      1  C   UNL     1       1.264  49.372  63.927  0.00  0.00    +0.000 C 
ATOM      2  C   UNL     1       1.649  48.694  65.259  0.00  0.00    +0.000 C 
ATOM      3  C   UNL     1       0.392  48.133  65.933  0.00  0.00    +0.000 C 
ATOM      4  N   UNL     1      -0.621  49.182  66.074  0.00  0.00    +0.000 N 
ATOM      5  C   UNL     1      -1.258  49.331  67.260  0.00  0.00    +0.000 A 
ATOM      6  N   UNL     1      -0.931  48.837  68.435  0.00  0.00    +0.000 NA
ATOM      7  C   UNL     1      -1.872  49.339  69.271  0.00  0.00    +0.000 A 
ATOM      8  N   UNL     1      -1.785  49.071  70.570  0.00  0.00    +0.000 N 
ATOM      9  N   UNL     1      -2.787  50.120  68.710  0.00  0.00    +0.000 NA
ATOM     10  N   UNL     1      -2.393  50.077  67.426  0.00  0.00    +0.000 N 
ATOM     11  C   UNL     1      -0.978  49.928  64.881  0.00  0.00    +0.000 C 
ATOM     12  C   UNL     1       0.282  50.516  64.258  0.00  0.00    +0.000 C 
ATOM     13  H   UNL     1      -0.878  48.765  70.898  0.00  0.00    +0.000 HD
ATOM     14  H   UNL     1      -2.262  49.712  71.190  0.00  0.00    +0.000 HD
ATOM     15  H   UNL     1      -2.929  50.575  66.736  0.00  0.00    +0.000 HD
ENDROOT
BRANCH   1  16
ATOM     16  N   UNL     1       2.402  49.728  63.040  0.00  0.00    +0.000 NA
ATOM     17  C   UNL     1       2.035  50.489  61.851  0.00  0.00    +0.000 C 
BRANCH  16  18
ATOM     18  C   UNL     1       3.187  48.516  62.719  0.00  0.00    +0.000 C 
BRANCH  18  19
ATOM     19  C   UNL     1       4.617  48.708  62.200  0.00  0.00    +0.000 C 
BRANCH  19  24
ATOM     20  C   UNL     1       6.140  44.259  58.742  0.00  0.00    +0.000 C 
ATOM     21  C   UNL     1       5.752  45.395  59.642  0.00  0.00    +0.000 A 
ATOM     22  C   UNL     1       5.569  45.200  61.014  0.00  0.00    +0.000 A 
ATOM     23  C   UNL     1       5.185  46.264  61.837  0.00  0.00    +0.000 A 
ATOM     24  C   UNL     1       4.974  47.541  61.300  0.00  0.00    +0.000 A 
ATOM     25  C   UNL     1       5.181  47.739  59.929  0.00  0.00    +0.000 A 
ATOM     26  C   UNL     1       5.564  46.676  59.107  0.00  0.00    +0.000 A 
ENDBRANCH  19  24
ENDBRANCH  18  19
ENDBRANCH  16  18
ENDBRANCH   1  16
TORSDOF 4
ENDMDL
MODEL 9
REMARK VINA RESULT:      -7.3      5.092      7.650
REMARK  Name = CHEMBL4081105-1111
REMARK  6 active torsions:
REMARK  status: ('A' for Active; 'I' for Inactive)
REMARK    1  A    between atoms: C_1  and  C_2
REMARK    2  A    between atoms: C_5  and  C_6
REMARK    3  A    between atoms: C_6  and  C_7
REMARK    4  A    between atoms: C_7  and  N_8
REMARK    5  A    between atoms: N_8  and  C_9
REMARK    6  A    between atoms: N_8  and  C_10
REMARK                            x       y       z     vdW  Elec       q    Type
REMARK                         _______ _______ _______ _____ _____    ______ ____
ROOT
ATOM      1  C   UNL     1      -6.371  48.427  66.554  0.00  0.00    +0.000 C 
ATOM      2  C   UNL     1      -5.970  49.796  65.965  0.00  0.00    +0.000 C 
ATOM      3  C   UNL     1      -4.463  50.012  66.146  0.00  0.00    +0.000 C 
ATOM      4  N   UNL     1      -4.089  49.840  67.552  0.00  0.00    +0.000 N 
ATOM      5  C   UNL     1      -3.285  50.757  68.140  0.00  0.00    +0.000 A 
ATOM      6  N   UNL     1      -2.970  51.963  67.719  0.00  0.00    +0.000 NA
ATOM      7  C   UNL     1      -2.188  52.459  68.708  0.00  0.00    +0.000 A 
ATOM      8  N   UNL     1      -1.747  53.709  68.611  0.00  0.00    +0.000 N 
ATOM      9  N   UNL     1      -1.974  51.648  69.737  0.00  0.00    +0.000 NA
ATOM     10  N   UNL     1      -2.658  50.562  69.341  0.00  0.00    +0.000 N 
ATOM     11  C   UNL     1      -4.507  48.613  68.207  0.00  0.00    +0.000 C 
ATOM     12  C   UNL     1      -6.014  48.447  68.055  0.00  0.00    +0.000 C 
ATOM     13  H   UNL     1      -2.251  54.307  67.970  0.00  0.00    +0.000 HD
ATOM     14  H   UNL     1      -1.477  54.155  69.479  0.00  0.00    +0.000 HD
ATOM     15  H   UNL     1      -2.659  49.747  69.930  0.00  0.00    +0.000 HD
ENDROOT
BRANCH   1  16
ATOM     16  N   UNL     1      -7.744  47.967  66.219  0.00  0.00    +0.000 NA
ATOM     17  C   UNL     1      -8.781  48.983  66.359  0.00  0.00    +0.000 C 
BRANCH  16  18
ATOM     18  C   UNL     1      -8.055  46.730  66.968  0.00  0.00    +0.000 C 
BRANCH  18  19
ATOM     19  C   UNL     1      -7.168  45.504  66.723  0.00  0.00    +0.000 C 
BRANCH  19  24
ATOM     20  C   UNL     1      -5.453  43.489  71.926  0.00  0.00    +0.000 C 
ATOM     21  C   UNL     1      -5.906  44.008  70.593  0.00  0.00    +0.000 A 
ATOM     22  C   UNL     1      -7.258  44.000  70.237  0.00  0.00    +0.000 A 
ATOM     23  C   UNL     1      -7.664  44.466  68.982  0.00  0.00    +0.000 A 
ATOM     24  C   UNL     1      -6.723  44.944  68.060  0.00  0.00    +0.000 A 
ATOM     25  C   UNL     1      -5.372  44.971  68.428  0.00  0.00    +0.000 A 
ATOM     26  C   UNL     1      -4.967  44.506  69.682  0.00  0.00    +0.000 A 
ENDBRANCH  19  24
ENDBRANCH  18  19
ENDBRANCH  16  18
ENDBRANCH   1  16
TORSDOF 4
ENDMDL
