MODEL 1
REMARK VINA RESULT:      -8.3      0.000      0.000
REMARK  Name = CHEMBL4072036-182
REMARK  6 active torsions:
REMARK  status: ('A' for Active; 'I' for Inactive)
REMARK    1  A    between atoms: C_1  and  C_2
REMARK    2  A    between atoms: C_2  and  N_3
REMARK    3  A    between atoms: N_3  and  C_4
REMARK    4  A    between atoms: N_3  and  C_13
REMARK    5  A    between atoms: C_4  and  C_5
REMARK    6  A    between atoms: C_5  and  C_6
REMARK                            x       y       z     vdW  Elec       q    Type
REMARK                         _______ _______ _______ _____ _____    ______ ____
ROOT
ATOM      1  C   UNL     1      -0.882  48.639  68.079  0.00  0.00    +0.000 C 
ATOM      2  C   UNL     1      -0.087  47.797  69.108  0.00  0.00    +0.000 C 
ATOM      3  C   UNL     1      -0.482  46.320  69.110  0.00  0.00    +0.000 C 
ATOM      4  N   UNL     1      -1.932  46.182  69.264  0.00  0.00    +0.000 N 
ATOM      5  C   UNL     1      -2.428  45.358  70.222  0.00  0.00    +0.000 A 
ATOM      6  N   UNL     1      -1.803  44.820  71.246  0.00  0.00    +0.000 NA
ATOM      7  C   UNL     1      -2.769  44.114  71.885  0.00  0.00    +0.000 A 
ATOM      8  N   UNL     1      -2.460  43.477  73.013  0.00  0.00    +0.000 N 
ATOM      9  N   UNL     1      -3.978  44.168  71.337  0.00  0.00    +0.000 NA
ATOM     10  N   UNL     1      -3.733  44.936  70.264  0.00  0.00    +0.000 N 
ATOM     11  C   UNL     1      -2.749  46.923  68.314  0.00  0.00    +0.000 C 
ATOM     12  C   UNL     1      -2.378  48.401  68.400  0.00  0.00    +0.000 C 
ATOM     13  H   UNL     1      -1.617  43.783  73.478  0.00  0.00    +0.000 HD
ATOM     14  H   UNL     1      -3.228  43.253  73.630  0.00  0.00    +0.000 HD
ATOM     15  H   UNL     1      -4.479  45.122  69.611  0.00  0.00    +0.000 HD
ENDROOT
BRANCH   1  16
ATOM     16  N   UNL     1      -0.513  48.398  66.646  0.00  0.00    +0.000 NA
BRANCH  16  18
ATOM     17  C   UNL     1      -2.111  48.245  64.658  0.00  0.00    +0.000 C 
ATOM     18  C   UNL     1      -1.440  49.102  65.729  0.00  0.00    +0.000 C 
ENDBRANCH  16  18
BRANCH  16  19
ATOM     19  C   UNL     1       0.913  48.703  66.346  0.00  0.00    +0.000 C 
BRANCH  19  20
ATOM     20  C   UNL     1       1.568  47.867  65.224  0.00  0.00    +0.000 C 
BRANCH  20  21
ATOM     21  C   UNL     1       1.976  48.658  64.000  0.00  0.00    +0.000 A 
ATOM     22  C   UNL     1       1.301  49.844  63.667  0.00  0.00    +0.000 A 
ATOM     23  C   UNL     1       1.735  50.636  62.602  0.00  0.00    +0.000 A 
ATOM     24  C   UNL     1       2.844  50.246  61.856  0.00  0.00    +0.000 A 
ATOM     25 CL   UNL     1       3.397  51.238  60.563  0.00  0.00    +0.000 Cl
ATOM     26  C   UNL     1       3.517  49.067  62.159  0.00  0.00    +0.000 A 
ATOM     27  C   UNL     1       3.084  48.274  63.231  0.00  0.00    +0.000 A 
ENDBRANCH  20  21
ENDBRANCH  19  20
ENDBRANCH  16  19
ENDBRANCH   1  16
TORSDOF 5
ENDMDL
MODEL 2
REMARK VINA RESULT:      -8.0      1.435      1.964
REMARK  Name = CHEMBL4072036-182
REMARK  6 active torsions:
REMARK  status: ('A' for Active; 'I' for Inactive)
REMARK    1  A    between atoms: C_1  and  C_2
REMARK    2  A    between atoms: C_2  and  N_3
REMARK    3  A    between atoms: N_3  and  C_4
REMARK    4  A    between atoms: N_3  and  C_13
REMARK    5  A    between atoms: C_4  and  C_5
REMARK    6  A    between atoms: C_5  and  C_6
REMARK                            x       y       z     vdW  Elec       q    Type
REMARK                         _______ _______ _______ _____ _____    ______ ____
ROOT
ATOM      1  C   UNL     1      -0.720  50.001  67.683  0.00  0.00    +0.000 C 
ATOM      2  C   UNL     1       0.144  48.899  68.347  0.00  0.00    +0.000 C 
ATOM      3  C   UNL     1      -0.336  47.483  68.024  0.00  0.00    +0.000 C 
ATOM      4  N   UNL     1      -1.762  47.348  68.331  0.00  0.00    +0.000 N 
ATOM      5  C   UNL     1      -2.184  46.315  69.104  0.00  0.00    +0.000 A 
ATOM      6  N   UNL     1      -1.471  45.512  69.863  0.00  0.00    +0.000 NA
ATOM      7  C   UNL     1      -2.392  44.689  70.424  0.00  0.00    +0.000 A 
ATOM      8  N   UNL     1      -1.985  43.772  71.300  0.00  0.00    +0.000 N 
ATOM      9  N   UNL     1      -3.654  44.916  70.076  0.00  0.00    +0.000 NA
ATOM     10  N   UNL     1      -3.497  45.931  69.212  0.00  0.00    +0.000 N 
ATOM     11  C   UNL     1      -2.643  48.332  67.720  0.00  0.00    +0.000 C 
ATOM     12  C   UNL     1      -2.176  49.726  68.130  0.00  0.00    +0.000 C 
ATOM     13  H   UNL     1      -1.075  43.924  71.710  0.00  0.00    +0.000 HD
ATOM     14  H   UNL     1      -2.684  43.415  71.937  0.00  0.00    +0.000 HD
ATOM     15  H   UNL     1      -4.306  46.300  68.734  0.00  0.00    +0.000 HD
ENDROOT
BRANCH   1  16
ATOM     16  N   UNL     1      -0.545  50.133  66.200  0.00  0.00    +0.000 NA
BRANCH  16  18
ATOM     17  C   UNL     1      -0.347  51.972  64.438  0.00  0.00    +0.000 C 
ATOM     18  C   UNL     1      -0.991  51.463  65.724  0.00  0.00    +0.000 C 
ENDBRANCH  16  18
BRANCH  16  19
ATOM     19  C   UNL     1       0.832  49.805  65.738  0.00  0.00    +0.000 C 
BRANCH  19  20
ATOM     20  C   UNL     1       0.964  48.582  64.801  0.00  0.00    +0.000 C 
BRANCH  20  21
ATOM     21  C   UNL     1       2.032  48.714  63.737  0.00  0.00    +0.000 A 
ATOM     22  C   UNL     1       2.894  47.640  63.463  0.00  0.00    +0.000 A 
ATOM     23  C   UNL     1       3.814  47.713  62.414  0.00  0.00    +0.000 A 
ATOM     24  C   UNL     1       3.884  48.863  61.634  0.00  0.00    +0.000 A 
ATOM     25 CL   UNL     1       4.994  48.942  60.322  0.00  0.00    +0.000 Cl
ATOM     26  C   UNL     1       3.049  49.945  61.898  0.00  0.00    +0.000 A 
ATOM     27  C   UNL     1       2.124  49.870  62.948  0.00  0.00    +0.000 A 
ENDBRANCH  20  21
ENDBRANCH  19  20
ENDBRANCH  16  19
ENDBRANCH   1  16
TORSDOF 5
ENDMDL
MODEL 3
REMARK VINA RESULT:      -7.9      4.931      7.188
REMARK  Name = CHEMBL4072036-182
REMARK  6 active torsions:
REMARK  status: ('A' for Active; 'I' for Inactive)
REMARK    1  A    between atoms: C_1  and  C_2
REMARK    2  A    between atoms: C_2  and  N_3
REMARK    3  A    between atoms: N_3  and  C_4
REMARK    4  A    between atoms: N_3  and  C_13
REMARK    5  A    between atoms: C_4  and  C_5
REMARK    6  A    between atoms: C_5  and  C_6
REMARK                            x       y       z     vdW  Elec       q    Type
REMARK                         _______ _______ _______ _____ _____    ______ ____
ROOT
ATOM      1  C   UNL     1      -2.419  49.944  67.064  0.00  0.00    +0.000 C 
ATOM      2  C   UNL     1      -1.265  48.980  66.687  0.00  0.00    +0.000 C 
ATOM      3  C   UNL     1      -1.070  47.850  67.699  0.00  0.00    +0.000 C 
ATOM      4  N   UNL     1      -0.932  48.398  69.051  0.00  0.00    +0.000 N 
ATOM      5  C   UNL     1       0.118  48.017  69.822  0.00  0.00    +0.000 A 
ATOM      6  N   UNL     1       1.221  47.399  69.461  0.00  0.00    +0.000 NA
ATOM      7  C   UNL     1       1.929  47.291  70.613  0.00  0.00    +0.000 A 
ATOM      8  N   UNL     1       3.140  46.739  70.575  0.00  0.00    +0.000 N 
ATOM      9  N   UNL     1       1.351  47.807  71.692  0.00  0.00    +0.000 NA
ATOM     10  N   UNL     1       0.189  48.234  71.175  0.00  0.00    +0.000 N 
ATOM     11  C   UNL     1      -1.993  49.292  69.490  0.00  0.00    +0.000 C 
ATOM     12  C   UNL     1      -2.103  50.444  68.495  0.00  0.00    +0.000 C 
ATOM     13  H   UNL     1       3.578  46.695  69.665  0.00  0.00    +0.000 HD
ATOM     14  H   UNL     1       3.764  46.967  71.336  0.00  0.00    +0.000 HD
ATOM     15  H   UNL     1      -0.501  48.645  71.787  0.00  0.00    +0.000 HD
ENDROOT
BRANCH   1  16
ATOM     16  N   UNL     1      -3.796  49.375  66.901  0.00  0.00    +0.000 NA
BRANCH  16  18
ATOM     17  C   UNL     1      -4.238  51.250  65.222  0.00  0.00    +0.000 C 
ATOM     18  C   UNL     1      -4.738  50.394  66.383  0.00  0.00    +0.000 C 
ENDBRANCH  16  18
BRANCH  16  19
ATOM     19  C   UNL     1      -3.824  48.123  66.095  0.00  0.00    +0.000 C 
BRANCH  19  20
ATOM     20  C   UNL     1      -5.136  47.307  66.148  0.00  0.00    +0.000 C 
BRANCH  20  21
ATOM     21  C   UNL     1      -5.188  46.266  67.245  0.00  0.00    +0.000 A 
ATOM     22  C   UNL     1      -4.112  46.122  68.136  0.00  0.00    +0.000 A 
ATOM     23  C   UNL     1      -4.193  45.237  69.214  0.00  0.00    +0.000 A 
ATOM     24  C   UNL     1      -5.347  44.484  69.407  0.00  0.00    +0.000 A 
ATOM     25 CL   UNL     1      -5.458  43.417  70.753  0.00  0.00    +0.000 Cl
ATOM     26  C   UNL     1      -6.418  44.599  68.527  0.00  0.00    +0.000 A 
ATOM     27  C   UNL     1      -6.339  45.490  67.447  0.00  0.00    +0.000 A 
ENDBRANCH  20  21
ENDBRANCH  19  20
ENDBRANCH  16  19
ENDBRANCH   1  16
TORSDOF 5
ENDMDL
MODEL 4
REMARK VINA RESULT:      -7.9      4.292      8.923
REMARK  Name = CHEMBL4072036-182
REMARK  6 active torsions:
REMARK  status: ('A' for Active; 'I' for Inactive)
REMARK    1  A    between atoms: C_1  and  C_2
REMARK    2  A    between atoms: C_2  and  N_3
REMARK    3  A    between atoms: N_3  and  C_4
REMARK    4  A    between atoms: N_3  and  C_13
REMARK    5  A    between atoms: C_4  and  C_5
REMARK    6  A    between atoms: C_5  and  C_6
REMARK                            x       y       z     vdW  Elec       q    Type
REMARK                         _______ _______ _______ _____ _____    ______ ____
ROOT
ATOM      1  C   UNL     1       0.170  48.427  67.996  0.00  0.00    +0.000 C 
ATOM      2  C   UNL     1      -0.341  49.573  67.086  0.00  0.00    +0.000 C 
ATOM      3  C   UNL     1      -0.392  49.189  65.607  0.00  0.00    +0.000 C 
ATOM      4  N   UNL     1       0.903  48.657  65.175  0.00  0.00    +0.000 N 
ATOM      5  C   UNL     1       1.498  49.165  64.066  0.00  0.00    +0.000 A 
ATOM      6  N   UNL     1       1.217  50.274  63.417  0.00  0.00    +0.000 NA
ATOM      7  C   UNL     1       2.129  50.307  62.413  0.00  0.00    +0.000 A 
ATOM      8  N   UNL     1       2.138  51.351  61.588  0.00  0.00    +0.000 N 
ATOM      9  N   UNL     1       2.982  49.290  62.380  0.00  0.00    +0.000 NA
ATOM     10  N   UNL     1       2.545  48.560  63.417  0.00  0.00    +0.000 N 
ATOM     11  C   UNL     1       1.437  47.557  65.965  0.00  0.00    +0.000 C 
ATOM     12  C   UNL     1       1.544  48.007  67.419  0.00  0.00    +0.000 C 
ATOM     13  H   UNL     1       1.668  52.182  61.919  0.00  0.00    +0.000 HD
ATOM     14  H   UNL     1       2.998  51.521  61.085  0.00  0.00    +0.000 HD
ATOM     15  H   UNL     1       2.987  47.675  63.618  0.00  0.00    +0.000 HD
ENDROOT
BRANCH   1  16
ATOM     16  N   UNL     1      -0.792  47.293  68.182  0.00  0.00    +0.000 NA
BRANCH  16  18
ATOM     17  C   UNL     1      -0.729  46.736  70.675  0.00  0.00    +0.000 C 
ATOM     18  C   UNL     1      -0.333  46.371  69.248  0.00  0.00    +0.000 C 
ENDBRANCH  16  18
BRANCH  16  19
ATOM     19  C   UNL     1      -2.196  47.740  68.394  0.00  0.00    +0.000 C 
BRANCH  19  20
ATOM     20  C   UNL     1      -3.238  47.225  67.375  0.00  0.00    +0.000 C 
BRANCH  20  21
ATOM     21  C   UNL     1      -4.268  46.276  67.948  0.00  0.00    +0.000 A 
ATOM     22  C   UNL     1      -5.486  46.068  67.282  0.00  0.00    +0.000 A 
ATOM     23  C   UNL     1      -6.400  45.118  67.746  0.00  0.00    +0.000 A 
ATOM     24  C   UNL     1      -6.106  44.374  68.884  0.00  0.00    +0.000 A 
ATOM     25 CL   UNL     1      -7.217  43.182  69.438  0.00  0.00    +0.000 Cl
ATOM     26  C   UNL     1      -4.911  44.576  69.569  0.00  0.00    +0.000 A 
ATOM     27  C   UNL     1      -3.993  45.526  69.101  0.00  0.00    +0.000 A 
ENDBRANCH  20  21
ENDBRANCH  19  20
ENDBRANCH  16  19
ENDBRANCH   1  16
TORSDOF 5
ENDMDL
MODEL 5
REMARK VINA RESULT:      -7.8      3.120      3.762
REMARK  Name = CHEMBL4072036-182
REMARK  6 active torsions:
REMARK  status: ('A' for Active; 'I' for Inactive)
REMARK    1  A    between atoms: C_1  and  C_2
REMARK    2  A    between atoms: C_2  and  N_3
REMARK    3  A    between atoms: N_3  and  C_4
REMARK    4  A    between atoms: N_3  and  C_13
REMARK    5  A    between atoms: C_4  and  C_5
REMARK    6  A    between atoms: C_5  and  C_6
REMARK                            x       y       z     vdW  Elec       q    Type
REMARK                         _______ _______ _______ _____ _____    ______ ____
ROOT
ATOM      1  C   UNL     1       0.161  50.331  65.966  0.00  0.00    +0.000 C 
ATOM      2  C   UNL     1       1.305  49.292  66.083  0.00  0.00    +0.000 C 
ATOM      3  C   UNL     1       0.948  48.103  66.975  0.00  0.00    +0.000 C 
ATOM      4  N   UNL     1       0.471  48.570  68.279  0.00  0.00    +0.000 N 
ATOM      5  C   UNL     1       1.021  48.065  69.412  0.00  0.00    +0.000 A 
ATOM      6  N   UNL     1       2.131  47.373  69.548  0.00  0.00    +0.000 NA
ATOM      7  C   UNL     1       2.216  47.150  70.884  0.00  0.00    +0.000 A 
ATOM      8  N   UNL     1       3.276  46.500  71.361  0.00  0.00    +0.000 N 
ATOM      9  N   UNL     1       1.232  47.660  71.615  0.00  0.00    +0.000 NA
ATOM     10  N   UNL     1       0.467  48.209  70.659  0.00  0.00    +0.000 N 
ATOM     11  C   UNL     1      -0.623  49.529  68.253  0.00  0.00    +0.000 C 
ATOM     12  C   UNL     1      -0.197  50.734  67.418  0.00  0.00    +0.000 C 
ATOM     13  H   UNL     1       4.083  46.462  70.754  0.00  0.00    +0.000 HD
ATOM     14  H   UNL     1       3.486  46.637  72.339  0.00  0.00    +0.000 HD
ATOM     15  H   UNL     1      -0.405  48.647  70.916  0.00  0.00    +0.000 HD
ENDROOT
BRANCH   1  16
ATOM     16  N   UNL     1      -1.011  49.890  65.142  0.00  0.00    +0.000 NA
BRANCH  16  18
ATOM     17  C   UNL     1      -3.272  51.008  64.737  0.00  0.00    +0.000 C 
ATOM     18  C   UNL     1      -2.285  50.381  65.717  0.00  0.00    +0.000 C 
ENDBRANCH  16  18
BRANCH  16  19
ATOM     19  C   UNL     1      -0.878  50.232  63.699  0.00  0.00    +0.000 C 
BRANCH  19  20
ATOM     20  C   UNL     1       0.049  51.421  63.362  0.00  0.00    +0.000 C 
BRANCH  20  21
ATOM     21  C   UNL     1       1.231  51.073  62.483  0.00  0.00    +0.000 A 
ATOM     22  C   UNL     1       1.603  51.921  61.428  0.00  0.00    +0.000 A 
ATOM     23  C   UNL     1       2.752  51.664  60.677  0.00  0.00    +0.000 A 
ATOM     24  C   UNL     1       3.536  50.552  60.970  0.00  0.00    +0.000 A 
ATOM     25 CL   UNL     1       4.969  50.252  60.066  0.00  0.00    +0.000 Cl
ATOM     26  C   UNL     1       3.177  49.690  62.002  0.00  0.00    +0.000 A 
ATOM     27  C   UNL     1       2.026  49.950  62.758  0.00  0.00    +0.000 A 
ENDBRANCH  20  21
ENDBRANCH  19  20
ENDBRANCH  16  19
ENDBRANCH   1  16
TORSDOF 5
ENDMDL
MODEL 6
REMARK VINA RESULT:      -7.7      4.342      8.203
REMARK  Name = CHEMBL4072036-182
REMARK  6 active torsions:
REMARK  status: ('A' for Active; 'I' for Inactive)
REMARK    1  A    between atoms: C_1  and  C_2
REMARK    2  A    between atoms: C_2  and  N_3
REMARK    3  A    between atoms: N_3  and  C_4
REMARK    4  A    between atoms: N_3  and  C_13
REMARK    5  A    between atoms: C_4  and  C_5
REMARK    6  A    between atoms: C_5  and  C_6
REMARK                            x       y       z     vdW  Elec       q    Type
REMARK                         _______ _______ _______ _____ _____    ______ ____
ROOT
ATOM      1  C   UNL     1      -1.390  48.694  65.350  0.00  0.00    +0.000 C 
ATOM      2  C   UNL     1      -0.070  47.888  65.434  0.00  0.00    +0.000 C 
ATOM      3  C   UNL     1       1.177  48.760  65.279  0.00  0.00    +0.000 C 
ATOM      4  N   UNL     1       1.083  49.570  64.062  0.00  0.00    +0.000 N 
ATOM      5  C   UNL     1       2.111  49.567  63.175  0.00  0.00    +0.000 A 
ATOM      6  N   UNL     1       3.124  48.733  63.096  0.00  0.00    +0.000 NA
ATOM      7  C   UNL     1       3.827  49.173  62.022  0.00  0.00    +0.000 A 
ATOM      8  N   UNL     1       4.910  48.498  61.643  0.00  0.00    +0.000 N 
ATOM      9  N   UNL     1       3.325  50.236  61.404  0.00  0.00    +0.000 NA
ATOM     10  N   UNL     1       2.254  50.490  62.171  0.00  0.00    +0.000 N 
ATOM     11  C   UNL     1      -0.120  50.379  63.924  0.00  0.00    +0.000 C 
ATOM     12  C   UNL     1      -1.336  49.461  64.007  0.00  0.00    +0.000 C 
ATOM     13  H   UNL     1       4.986  47.552  61.987  0.00  0.00    +0.000 HD
ATOM     14  H   UNL     1       5.210  48.628  60.687  0.00  0.00    +0.000 HD
ATOM     15  H   UNL     1       1.681  51.296  61.965  0.00  0.00    +0.000 HD
ENDROOT
BRANCH   1  16
ATOM     16  N   UNL     1      -1.680  49.557  66.541  0.00  0.00    +0.000 NA
BRANCH  16  18
ATOM     17  C   UNL     1      -4.047  50.248  67.211  0.00  0.00    +0.000 C 
ATOM     18  C   UNL     1      -2.843  50.441  66.293  0.00  0.00    +0.000 C 
ENDBRANCH  16  18
BRANCH  16  19
ATOM     19  C   UNL     1      -1.821  48.786  67.807  0.00  0.00    +0.000 C 
BRANCH  19  20
ATOM     20  C   UNL     1      -1.165  49.407  69.061  0.00  0.00    +0.000 C 
BRANCH  20  21
ATOM     21  C   UNL     1      -0.038  48.591  69.655  0.00  0.00    +0.000 A 
ATOM     22  C   UNL     1       0.915  47.986  68.820  0.00  0.00    +0.000 A 
ATOM     23  C   UNL     1       2.016  47.318  69.361  0.00  0.00    +0.000 A 
ATOM     24  C   UNL     1       2.171  47.243  70.742  0.00  0.00    +0.000 A 
ATOM     25 CL   UNL     1       3.544  46.448  71.407  0.00  0.00    +0.000 Cl
ATOM     26  C   UNL     1       1.230  47.822  71.588  0.00  0.00    +0.000 A 
ATOM     27  C   UNL     1       0.127  48.496  71.045  0.00  0.00    +0.000 A 
ENDBRANCH  20  21
ENDBRANCH  19  20
ENDBRANCH  16  19
ENDBRANCH   1  16
TORSDOF 5
ENDMDL
MODEL 7
REMARK VINA RESULT:      -7.5      5.789      8.410
REMARK  Name = CHEMBL4072036-182
REMARK  6 active torsions:
REMARK  status: ('A' for Active; 'I' for Inactive)
REMARK    1  A    between atoms: C_1  and  C_2
REMARK    2  A    between atoms: C_2  and  N_3
REMARK    3  A    between atoms: N_3  and  C_4
REMARK    4  A    between atoms: N_3  and  C_13
REMARK    5  A    between atoms: C_4  and  C_5
REMARK    6  A    between atoms: C_5  and  C_6
REMARK                            x       y       z     vdW  Elec       q    Type
REMARK                         _______ _______ _______ _____ _____    ______ ____
ROOT
ATOM      1  C   UNL     1      -4.945  48.736  66.055  0.00  0.00    +0.000 C 
ATOM      2  C   UNL     1      -3.689  47.832  66.137  0.00  0.00    +0.000 C 
ATOM      3  C   UNL     1      -3.372  47.371  67.561  0.00  0.00    +0.000 C 
ATOM      4  N   UNL     1      -3.301  48.523  68.463  0.00  0.00    +0.000 N 
ATOM      5  C   UNL     1      -2.218  48.677  69.266  0.00  0.00    +0.000 A 
ATOM      6  N   UNL     1      -1.051  48.074  69.197  0.00  0.00    +0.000 NA
ATOM      7  C   UNL     1      -0.340  48.618  70.216  0.00  0.00    +0.000 A 
ATOM      8  N   UNL     1       0.925  48.242  70.389  0.00  0.00    +0.000 N 
ATOM      9  N   UNL     1      -0.976  49.537  70.934  0.00  0.00    +0.000 NA
ATOM     10  N   UNL     1      -2.177  49.536  70.335  0.00  0.00    +0.000 N 
ATOM     11  C   UNL     1      -4.458  49.406  68.464  0.00  0.00    +0.000 C 
ATOM     12  C   UNL     1      -4.693  49.904  67.040  0.00  0.00    +0.000 C 
ATOM     13  H   UNL     1       1.369  47.800  69.596  0.00  0.00    +0.000 HD
ATOM     14  H   UNL     1       1.517  48.875  70.908  0.00  0.00    +0.000 HD
ATOM     15  H   UNL     1      -2.911  50.124  70.703  0.00  0.00    +0.000 HD
ENDROOT
BRANCH   1  16
ATOM     16  N   UNL     1      -6.249  48.026  66.262  0.00  0.00    +0.000 NA
BRANCH  16  18
ATOM     17  C   UNL     1      -8.450  49.287  66.570  0.00  0.00    +0.000 C 
ATOM     18  C   UNL     1      -7.367  48.765  65.630  0.00  0.00    +0.000 C 
ENDBRANCH  16  18
BRANCH  16  19
ATOM     19  C   UNL     1      -6.214  46.597  65.847  0.00  0.00    +0.000 C 
BRANCH  19  20
ATOM     20  C   UNL     1      -7.368  45.708  66.364  0.00  0.00    +0.000 C 
BRANCH  20  21
ATOM     21  C   UNL     1      -7.125  45.082  67.720  0.00  0.00    +0.000 A 
ATOM     22  C   UNL     1      -8.187  44.507  68.435  0.00  0.00    +0.000 A 
ATOM     23  C   UNL     1      -7.957  43.836  69.638  0.00  0.00    +0.000 A 
ATOM     24  C   UNL     1      -6.662  43.738  70.140  0.00  0.00    +0.000 A 
ATOM     25 CL   UNL     1      -6.374  42.884  71.605  0.00  0.00    +0.000 Cl
ATOM     26  C   UNL     1      -5.597  44.314  69.454  0.00  0.00    +0.000 A 
ATOM     27  C   UNL     1      -5.828  44.984  68.245  0.00  0.00    +0.000 A 
ENDBRANCH  20  21
ENDBRANCH  19  20
ENDBRANCH  16  19
ENDBRANCH   1  16
TORSDOF 5
ENDMDL
MODEL 8
REMARK VINA RESULT:      -7.5      5.084      8.973
REMARK  Name = CHEMBL4072036-182
REMARK  6 active torsions:
REMARK  status: ('A' for Active; 'I' for Inactive)
REMARK    1  A    between atoms: C_1  and  C_2
REMARK    2  A    between atoms: C_2  and  N_3
REMARK    3  A    between atoms: N_3  and  C_4
REMARK    4  A    between atoms: N_3  and  C_13
REMARK    5  A    between atoms: C_4  and  C_5
REMARK    6  A    between atoms: C_5  and  C_6
REMARK                            x       y       z     vdW  Elec       q    Type
REMARK                         _______ _______ _______ _____ _____    ______ ____
ROOT
ATOM      1  C   UNL     1      -1.103  49.416  68.848  0.00  0.00    +0.000 C 
ATOM      2  C   UNL     1      -2.644  49.530  68.742  0.00  0.00    +0.000 C 
ATOM      3  C   UNL     1      -3.174  49.219  67.341  0.00  0.00    +0.000 C 
ATOM      4  N   UNL     1      -2.476  50.031  66.342  0.00  0.00    +0.000 N 
ATOM      5  C   UNL     1      -3.195  50.751  65.444  0.00  0.00    +0.000 A 
ATOM      6  N   UNL     1      -4.474  51.054  65.469  0.00  0.00    +0.000 NA
ATOM      7  C   UNL     1      -4.656  51.803  64.353  0.00  0.00    +0.000 A 
ATOM      8  N   UNL     1      -5.862  52.313  64.111  0.00  0.00    +0.000 N 
ATOM      9  N   UNL     1      -3.571  52.006  63.615  0.00  0.00    +0.000 NA
ATOM     10  N   UNL     1      -2.661  51.303  64.306  0.00  0.00    +0.000 N 
ATOM     11  C   UNL     1      -1.022  49.956  66.361  0.00  0.00    +0.000 C 
ATOM     12  C   UNL     1      -0.531  50.347  67.751  0.00  0.00    +0.000 C 
ATOM     13  H   UNL     1      -6.491  52.357  64.901  0.00  0.00    +0.000 HD
ATOM     14  H   UNL     1      -5.898  53.113  63.495  0.00  0.00    +0.000 HD
ATOM     15  H   UNL     1      -1.719  51.232  63.951  0.00  0.00    +0.000 HD
ENDROOT
BRANCH   1  16
ATOM     16  N   UNL     1      -0.569  48.016  68.808  0.00  0.00    +0.000 NA
BRANCH  16  18
ATOM     17  C   UNL     1       1.552  47.645  70.185  0.00  0.00    +0.000 C 
ATOM     18  C   UNL     1       0.913  48.006  68.847  0.00  0.00    +0.000 C 
ENDBRANCH  16  18
BRANCH  16  19
ATOM     19  C   UNL     1      -1.163  47.128  69.845  0.00  0.00    +0.000 C 
BRANCH  19  20
ATOM     20  C   UNL     1      -1.739  45.784  69.345  0.00  0.00    +0.000 C 
BRANCH  20  21
ATOM     21  C   UNL     1      -2.677  45.099  70.314  0.00  0.00    +0.000 A 
ATOM     22  C   UNL     1      -2.285  44.879  71.644  0.00  0.00    +0.000 A 
ATOM     23  C   UNL     1      -3.179  44.342  72.573  0.00  0.00    +0.000 A 
ATOM     24  C   UNL     1      -4.472  44.013  72.177  0.00  0.00    +0.000 A 
ATOM     25 CL   UNL     1      -5.584  43.380  73.328  0.00  0.00    +0.000 Cl
ATOM     26  C   UNL     1      -4.877  44.208  70.860  0.00  0.00    +0.000 A 
ATOM     27  C   UNL     1      -3.981  44.750  69.930  0.00  0.00    +0.000 A 
ENDBRANCH  20  21
ENDBRANCH  19  20
ENDBRANCH  16  19
ENDBRANCH   1  16
TORSDOF 5
ENDMDL
MODEL 9
REMARK VINA RESULT:      -7.4      1.433      2.078
REMARK  Name = CHEMBL4072036-182
REMARK  6 active torsions:
REMARK  status: ('A' for Active; 'I' for Inactive)
REMARK    1  A    between atoms: C_1  and  C_2
REMARK    2  A    between atoms: C_2  and  N_3
REMARK    3  A    between atoms: N_3  and  C_4
REMARK    4  A    between atoms: N_3  and  C_13
REMARK    5  A    between atoms: C_4  and  C_5
REMARK    6  A    between atoms: C_5  and  C_6
REMARK                            x       y       z     vdW  Elec       q    Type
REMARK                         _______ _______ _______ _____ _____    ______ ____
ROOT
ATOM      1  C   UNL     1      -1.024  48.704  69.159  0.00  0.00    +0.000 C 
ATOM      2  C   UNL     1      -0.838  48.467  70.678  0.00  0.00    +0.000 C 
ATOM      3  C   UNL     1      -0.626  46.995  71.035  0.00  0.00    +0.000 C 
ATOM      4  N   UNL     1      -1.693  46.173  70.459  0.00  0.00    +0.000 N 
ATOM      5  C   UNL     1      -2.371  45.306  71.253  0.00  0.00    +0.000 A 
ATOM      6  N   UNL     1      -2.403  45.247  72.566  0.00  0.00    +0.000 NA
ATOM      7  C   UNL     1      -3.249  44.219  72.828  0.00  0.00    +0.000 A 
ATOM      8  N   UNL     1      -3.534  43.928  74.095  0.00  0.00    +0.000 N 
ATOM      9  N   UNL     1      -3.767  43.617  71.763  0.00  0.00    +0.000 NA
ATOM     10  N   UNL     1      -3.172  44.300  70.773  0.00  0.00    +0.000 N 
ATOM     11  C   UNL     1      -1.910  46.320  69.028  0.00  0.00    +0.000 C 
ATOM     12  C   UNL     1      -2.195  47.789  68.725  0.00  0.00    +0.000 C 
ATOM     13  H   UNL     1      -3.339  44.653  74.771  0.00  0.00    +0.000 HD
ATOM     14  H   UNL     1      -4.387  43.413  74.259  0.00  0.00    +0.000 HD
ATOM     15  H   UNL     1      -3.343  44.030  69.816  0.00  0.00    +0.000 HD
ENDROOT
BRANCH   1  16
ATOM     16  N   UNL     1       0.220  48.544  68.338  0.00  0.00    +0.000 NA
BRANCH  16  18
ATOM     17  C   UNL     1       1.893  46.617  68.475  0.00  0.00    +0.000 C 
ATOM     18  C   UNL     1       0.507  47.114  68.074  0.00  0.00    +0.000 C 
ENDBRANCH  16  18
BRANCH  16  19
ATOM     19  C   UNL     1       0.211  49.354  67.089  0.00  0.00    +0.000 C 
BRANCH  19  20
ATOM     20  C   UNL     1      -0.195  48.611  65.796  0.00  0.00    +0.000 C 
BRANCH  20  21
ATOM     21  C   UNL     1       0.883  48.553  64.735  0.00  0.00    +0.000 A 
ATOM     22  C   UNL     1       1.177  49.687  63.962  0.00  0.00    +0.000 A 
ATOM     23  C   UNL     1       2.238  49.676  63.053  0.00  0.00    +0.000 A 
ATOM     24  C   UNL     1       3.010  48.528  62.905  0.00  0.00    +0.000 A 
ATOM     25 CL   UNL     1       4.336  48.524  61.809  0.00  0.00    +0.000 Cl
ATOM     26  C   UNL     1       2.726  47.388  63.651  0.00  0.00    +0.000 A 
ATOM     27  C   UNL     1       1.664  47.400  64.565  0.00  0.00    +0.000 A 
ENDBRANCH  20  21
ENDBRANCH  19  20
ENDBRANCH  16  19
ENDBRANCH   1  16
TORSDOF 5
ENDMDL
