MODEL 1
REMARK VINA RESULT:      -8.0      0.000      0.000
REMARK  Name = CHEMBL1215473-210
REMARK  4 active torsions:
REMARK  status: ('A' for Active; 'I' for Inactive)
REMARK    1  A    between atoms: N_9  and  C_10
REMARK    2  A    between atoms: C_10  and  C_11
REMARK    3  A    between atoms: C_11  and  O_12
REMARK    4  A    between atoms: O_12  and  C_13
REMARK                            x       y       z     vdW  Elec       q    Type
REMARK                         _______ _______ _______ _____ _____    ______ ____
ROOT
ATOM      1  N   UNL     1      -4.368  43.548  71.149  0.00  0.00    +0.000 N 
ATOM      2  C   UNL     1      -3.266  44.190  70.778  0.00  0.00    +0.000 A 
ATOM      3  N   UNL     1      -2.044  43.956  71.245  0.00  0.00    +0.000 NA
ATOM      4  N   UNL     1      -1.338  44.883  70.582  0.00  0.00    +0.000 N 
ATOM      5  C   UNL     1      -2.125  45.615  69.732  0.00  0.00    +0.000 A 
ATOM      6  N   UNL     1      -1.666  46.655  68.995  0.00  0.00    +0.000 N 
ATOM      7  C   UNL     1      -0.257  46.907  68.693  0.00  0.00    +0.000 C 
ATOM      8  C   UNL     1       0.052  48.422  68.811  0.00  0.00    +0.000 C 
ATOM      9  N   UNL     1      -0.859  49.314  68.052  0.00  0.00    +0.000 NA
ATOM     10  C   UNL     1      -2.253  48.971  68.436  0.00  0.00    +0.000 C 
ATOM     11  C   UNL     1      -2.628  47.481  68.259  0.00  0.00    +0.000 C 
ATOM     12  N   UNL     1      -3.357  45.171  69.843  0.00  0.00    +0.000 NA
ATOM     13  H   UNL     1      -4.254  42.675  71.645  0.00  0.00    +0.000 HD
ATOM     14  H   UNL     1      -5.169  43.602  70.537  0.00  0.00    +0.000 HD
ATOM     15  H   UNL     1      -0.356  44.994  70.786  0.00  0.00    +0.000 HD
ENDROOT
BRANCH   9  16
ATOM     16  C   UNL     1      -0.612  49.205  66.600  0.00  0.00    +0.000 C 
BRANCH  16  17
ATOM     17  C   UNL     1       0.856  49.423  66.215  0.00  0.00    +0.000 C 
BRANCH  17  18
ATOM     18  O   UNL     1       0.960  49.611  64.801  0.00  0.00    +0.000 OA
BRANCH  18  19
ATOM     19  C   UNL     1       1.819  48.758  64.159  0.00  0.00    +0.000 A 
ATOM     20  C   UNL     1       2.025  47.412  64.480  0.00  0.00    +0.000 A 
ATOM     21  C   UNL     1       2.914  46.635  63.735  0.00  0.00    +0.000 A 
ATOM     22  C   UNL     1       3.599  47.205  62.665  0.00  0.00    +0.000 A 
ATOM     23 BR   UNL     1       4.781  46.142  61.642  0.00  0.00    +0.000 Br
ATOM     24  C   UNL     1       3.415  48.545  62.345  0.00  0.00    +0.000 A 
ATOM     25  C   UNL     1       2.527  49.320  63.092  0.00  0.00    +0.000 A 
ENDBRANCH  18  19
ENDBRANCH  17  18
ENDBRANCH  16  17
ENDBRANCH   9  16
TORSDOF 4
ENDMDL
MODEL 2
REMARK VINA RESULT:      -7.8      4.949      7.456
REMARK  Name = CHEMBL1215473-210
REMARK  4 active torsions:
REMARK  status: ('A' for Active; 'I' for Inactive)
REMARK    1  A    between atoms: N_9  and  C_10
REMARK    2  A    between atoms: C_10  and  C_11
REMARK    3  A    between atoms: C_11  and  O_12
REMARK    4  A    between atoms: O_12  and  C_13
REMARK                            x       y       z     vdW  Elec       q    Type
REMARK                         _______ _______ _______ _____ _____    ______ ____
ROOT
ATOM      1  N   UNL     1       3.875  47.010  74.196  0.00  0.00    +0.000 N 
ATOM      2  C   UNL     1       3.677  46.923  72.886  0.00  0.00    +0.000 A 
ATOM      3  N   UNL     1       4.602  46.604  71.987  0.00  0.00    +0.000 NA
ATOM      4  N   UNL     1       3.895  46.699  70.851  0.00  0.00    +0.000 N 
ATOM      5  C   UNL     1       2.588  47.035  71.088  0.00  0.00    +0.000 A 
ATOM      6  N   UNL     1       1.681  47.256  70.107  0.00  0.00    +0.000 N 
ATOM      7  C   UNL     1       1.826  46.811  68.720  0.00  0.00    +0.000 C 
ATOM      8  C   UNL     1       1.351  47.923  67.749  0.00  0.00    +0.000 C 
ATOM      9  N   UNL     1       0.002  48.473  68.030  0.00  0.00    +0.000 NA
ATOM     10  C   UNL     1      -0.030  48.891  69.457  0.00  0.00    +0.000 C 
ATOM     11  C   UNL     1       0.363  47.787  70.466  0.00  0.00    +0.000 C 
ATOM     12  N   UNL     1       2.437  47.169  72.387  0.00  0.00    +0.000 NA
ATOM     13  H   UNL     1       4.714  46.590  74.570  0.00  0.00    +0.000 HD
ATOM     14  H   UNL     1       3.062  46.972  74.795  0.00  0.00    +0.000 HD
ATOM     15  H   UNL     1       4.364  46.573  69.967  0.00  0.00    +0.000 HD
ENDROOT
BRANCH   9  16
ATOM     16  C   UNL     1      -1.048  47.491  67.689  0.00  0.00    +0.000 C 
BRANCH  16  17
ATOM     17  C   UNL     1      -2.163  47.404  68.739  0.00  0.00    +0.000 C 
BRANCH  17  18
ATOM     18  O   UNL     1      -2.293  46.053  69.192  0.00  0.00    +0.000 OA
BRANCH  18  19
ATOM     19  C   UNL     1      -3.559  45.534  69.124  0.00  0.00    +0.000 A 
ATOM     20  C   UNL     1      -4.124  44.638  70.037  0.00  0.00    +0.000 A 
ATOM     21  C   UNL     1      -5.439  44.196  69.873  0.00  0.00    +0.000 A 
ATOM     22  C   UNL     1      -6.191  44.653  68.795  0.00  0.00    +0.000 A 
ATOM     23 BR   UNL     1      -7.979  44.074  68.592  0.00  0.00    +0.000 Br
ATOM     24  C   UNL     1      -5.637  45.532  67.872  0.00  0.00    +0.000 A 
ATOM     25  C   UNL     1      -4.322  45.971  68.036  0.00  0.00    +0.000 A 
ENDBRANCH  18  19
ENDBRANCH  17  18
ENDBRANCH  16  17
ENDBRANCH   9  16
TORSDOF 4
ENDMDL
MODEL 3
REMARK VINA RESULT:      -7.7      4.529      7.961
REMARK  Name = CHEMBL1215473-210
REMARK  4 active torsions:
REMARK  status: ('A' for Active; 'I' for Inactive)
REMARK    1  A    between atoms: N_9  and  C_10
REMARK    2  A    between atoms: C_10  and  C_11
REMARK    3  A    between atoms: C_11  and  O_12
REMARK    4  A    between atoms: O_12  and  C_13
REMARK                            x       y       z     vdW  Elec       q    Type
REMARK                         _______ _______ _______ _____ _____    ______ ____
ROOT
ATOM      1  N   UNL     1       3.723  45.768  63.236  0.00  0.00    +0.000 N 
ATOM      2  C   UNL     1       3.003  46.837  63.557  0.00  0.00    +0.000 A 
ATOM      3  N   UNL     1       2.997  47.989  62.896  0.00  0.00    +0.000 NA
ATOM      4  N   UNL     1       2.153  48.710  63.648  0.00  0.00    +0.000 N 
ATOM      5  C   UNL     1       1.659  47.984  64.701  0.00  0.00    +0.000 A 
ATOM      6  N   UNL     1       0.837  48.500  65.646  0.00  0.00    +0.000 N 
ATOM      7  C   UNL     1       0.061  49.731  65.496  0.00  0.00    +0.000 C 
ATOM      8  C   UNL     1       0.104  50.554  66.809  0.00  0.00    +0.000 C 
ATOM      9  N   UNL     1      -0.255  49.803  68.038  0.00  0.00    +0.000 NA
ATOM     10  C   UNL     1       0.590  48.581  68.086  0.00  0.00    +0.000 C 
ATOM     11  C   UNL     1       0.516  47.689  66.824  0.00  0.00    +0.000 C 
ATOM     12  N   UNL     1       2.189  46.783  64.644  0.00  0.00    +0.000 NA
ATOM     13  H   UNL     1       4.121  45.736  62.309  0.00  0.00    +0.000 HD
ATOM     14  H   UNL     1       3.438  44.880  63.622  0.00  0.00    +0.000 HD
ATOM     15  H   UNL     1       1.997  49.680  63.423  0.00  0.00    +0.000 HD
ENDROOT
BRANCH   9  16
ATOM     16  C   UNL     1      -1.703  49.510  68.070  0.00  0.00    +0.000 C 
BRANCH  16  17
ATOM     17  C   UNL     1      -2.040  48.192  68.779  0.00  0.00    +0.000 C 
BRANCH  17  18
ATOM     18  O   UNL     1      -2.813  47.361  67.907  0.00  0.00    +0.000 OA
BRANCH  18  19
ATOM     19  C   UNL     1      -3.472  46.327  68.519  0.00  0.00    +0.000 A 
ATOM     20  C   UNL     1      -2.971  45.542  69.562  0.00  0.00    +0.000 A 
ATOM     21  C   UNL     1      -3.750  44.526  70.121  0.00  0.00    +0.000 A 
ATOM     22  C   UNL     1      -5.035  44.297  69.637  0.00  0.00    +0.000 A 
ATOM     23 BR   UNL     1      -6.097  42.940  70.415  0.00  0.00    +0.000 Br
ATOM     24  C   UNL     1      -5.540  45.061  68.591  0.00  0.00    +0.000 A 
ATOM     25  C   UNL     1      -4.759  46.073  68.032  0.00  0.00    +0.000 A 
ENDBRANCH  18  19
ENDBRANCH  17  18
ENDBRANCH  16  17
ENDBRANCH   9  16
TORSDOF 4
ENDMDL
MODEL 4
REMARK VINA RESULT:      -7.2      3.602      5.175
REMARK  Name = CHEMBL1215473-210
REMARK  4 active torsions:
REMARK  status: ('A' for Active; 'I' for Inactive)
REMARK    1  A    between atoms: N_9  and  C_10
REMARK    2  A    between atoms: C_10  and  C_11
REMARK    3  A    between atoms: C_11  and  O_12
REMARK    4  A    between atoms: O_12  and  C_13
REMARK                            x       y       z     vdW  Elec       q    Type
REMARK                         _______ _______ _______ _____ _____    ______ ____
ROOT
ATOM      1  N   UNL     1      -1.910  54.129  68.816  0.00  0.00    +0.000 N 
ATOM      2  C   UNL     1      -1.972  52.821  68.593  0.00  0.00    +0.000 A 
ATOM      3  N   UNL     1      -2.853  51.988  69.138  0.00  0.00    +0.000 NA
ATOM      4  N   UNL     1      -2.452  50.819  68.617  0.00  0.00    +0.000 N 
ATOM      5  C   UNL     1      -1.386  50.975  67.770  0.00  0.00    +0.000 A 
ATOM      6  N   UNL     1      -0.753  49.942  67.164  0.00  0.00    +0.000 N 
ATOM      7  C   UNL     1      -1.312  48.600  67.003  0.00  0.00    +0.000 C 
ATOM      8  C   UNL     1      -0.222  47.531  67.274  0.00  0.00    +0.000 C 
ATOM      9  N   UNL     1       1.044  47.713  66.520  0.00  0.00    +0.000 NA
ATOM     10  C   UNL     1       1.517  49.103  66.757  0.00  0.00    +0.000 C 
ATOM     11  C   UNL     1       0.485  50.206  66.424  0.00  0.00    +0.000 C 
ATOM     12  N   UNL     1      -1.080  52.253  67.740  0.00  0.00    +0.000 NA
ATOM     13  H   UNL     1      -2.713  54.568  69.243  0.00  0.00    +0.000 HD
ATOM     14  H   UNL     1      -1.407  54.694  68.146  0.00  0.00    +0.000 HD
ATOM     15  H   UNL     1      -2.905  49.968  68.910  0.00  0.00    +0.000 HD
ENDROOT
BRANCH   9  16
ATOM     16  C   UNL     1       0.853  47.400  65.090  0.00  0.00    +0.000 C 
BRANCH  16  17
ATOM     17  C   UNL     1       2.029  47.841  64.209  0.00  0.00    +0.000 C 
BRANCH  17  18
ATOM     18  O   UNL     1       1.594  48.853  63.296  0.00  0.00    +0.000 OA
BRANCH  18  19
ATOM     19  C   UNL     1       2.557  49.321  62.441  0.00  0.00    +0.000 A 
ATOM     20  C   UNL     1       2.444  50.450  61.623  0.00  0.00    +0.000 A 
ATOM     21  C   UNL     1       3.507  50.842  60.807  0.00  0.00    +0.000 A 
ATOM     22  C   UNL     1       4.688  50.104  60.810  0.00  0.00    +0.000 A 
ATOM     23 BR   UNL     1       6.135  50.654  59.725  0.00  0.00    +0.000 Br
ATOM     24  C   UNL     1       4.808  48.971  61.607  0.00  0.00    +0.000 A 
ATOM     25  C   UNL     1       3.743  48.580  62.420  0.00  0.00    +0.000 A 
ENDBRANCH  18  19
ENDBRANCH  17  18
ENDBRANCH  16  17
ENDBRANCH   9  16
TORSDOF 4
ENDMDL
MODEL 5
REMARK VINA RESULT:      -7.2      6.373      9.217
REMARK  Name = CHEMBL1215473-210
REMARK  4 active torsions:
REMARK  status: ('A' for Active; 'I' for Inactive)
REMARK    1  A    between atoms: N_9  and  C_10
REMARK    2  A    between atoms: C_10  and  C_11
REMARK    3  A    between atoms: C_11  and  O_12
REMARK    4  A    between atoms: O_12  and  C_13
REMARK                            x       y       z     vdW  Elec       q    Type
REMARK                         _______ _______ _______ _____ _____    ______ ____
ROOT
ATOM      1  N   UNL     1      -2.082  54.093  68.814  0.00  0.00    +0.000 N 
ATOM      2  C   UNL     1      -1.992  52.786  68.597  0.00  0.00    +0.000 A 
ATOM      3  N   UNL     1      -0.894  52.141  68.221  0.00  0.00    +0.000 NA
ATOM      4  N   UNL     1      -1.359  50.888  68.113  0.00  0.00    +0.000 N 
ATOM      5  C   UNL     1      -2.686  50.805  68.446  0.00  0.00    +0.000 A 
ATOM      6  N   UNL     1      -3.410  49.664  68.359  0.00  0.00    +0.000 N 
ATOM      7  C   UNL     1      -2.842  48.318  68.281  0.00  0.00    +0.000 C 
ATOM      8  C   UNL     1      -3.624  47.465  67.249  0.00  0.00    +0.000 C 
ATOM      9  N   UNL     1      -5.097  47.449  67.430  0.00  0.00    +0.000 NA
ATOM     10  C   UNL     1      -5.562  48.860  67.494  0.00  0.00    +0.000 C 
ATOM     11  C   UNL     1      -4.860  49.727  68.565  0.00  0.00    +0.000 C 
ATOM     12  N   UNL     1      -3.096  52.012  68.767  0.00  0.00    +0.000 NA
ATOM     13  H   UNL     1      -1.219  54.607  68.926  0.00  0.00    +0.000 HD
ATOM     14  H   UNL     1      -2.862  54.424  69.363  0.00  0.00    +0.000 HD
ATOM     15  H   UNL     1      -0.749  50.163  67.768  0.00  0.00    +0.000 HD
ENDROOT
BRANCH   9  16
ATOM     16  C   UNL     1      -5.472  46.659  68.620  0.00  0.00    +0.000 C 
BRANCH  16  17
ATOM     17  C   UNL     1      -5.199  45.158  68.464  0.00  0.00    +0.000 C 
BRANCH  17  18
ATOM     18  O   UNL     1      -4.147  44.766  69.350  0.00  0.00    +0.000 OA
BRANCH  18  19
ATOM     19  C   UNL     1      -4.557  44.288  70.568  0.00  0.00    +0.000 A 
ATOM     20  C   UNL     1      -3.889  44.469  71.782  0.00  0.00    +0.000 A 
ATOM     21  C   UNL     1      -4.419  43.951  72.966  0.00  0.00    +0.000 A 
ATOM     22  C   UNL     1      -5.623  43.252  72.934  0.00  0.00    +0.000 A 
ATOM     23 BR   UNL     1      -6.352  42.577  74.542  0.00  0.00    +0.000 Br
ATOM     24  C   UNL     1      -6.290  43.053  71.731  0.00  0.00    +0.000 A 
ATOM     25  C   UNL     1      -5.756  43.569  70.549  0.00  0.00    +0.000 A 
ENDBRANCH  18  19
ENDBRANCH  17  18
ENDBRANCH  16  17
ENDBRANCH   9  16
TORSDOF 4
ENDMDL
MODEL 6
REMARK VINA RESULT:      -7.1      3.952      4.794
REMARK  Name = CHEMBL1215473-210
REMARK  4 active torsions:
REMARK  status: ('A' for Active; 'I' for Inactive)
REMARK    1  A    between atoms: N_9  and  C_10
REMARK    2  A    between atoms: C_10  and  C_11
REMARK    3  A    between atoms: C_11  and  O_12
REMARK    4  A    between atoms: O_12  and  C_13
REMARK                            x       y       z     vdW  Elec       q    Type
REMARK                         _______ _______ _______ _____ _____    ______ ____
ROOT
ATOM      1  N   UNL     1      -4.549  43.552  70.813  0.00  0.00    +0.000 N 
ATOM      2  C   UNL     1      -3.362  44.130  70.670  0.00  0.00    +0.000 A 
ATOM      3  N   UNL     1      -2.234  43.725  71.244  0.00  0.00    +0.000 NA
ATOM      4  N   UNL     1      -1.377  44.658  70.805  0.00  0.00    +0.000 N 
ATOM      5  C   UNL     1      -1.986  45.563  69.974  0.00  0.00    +0.000 A 
ATOM      6  N   UNL     1      -1.355  46.640  69.448  0.00  0.00    +0.000 N 
ATOM      7  C   UNL     1       0.097  46.795  69.357  0.00  0.00    +0.000 C 
ATOM      8  C   UNL     1       0.503  48.247  69.719  0.00  0.00    +0.000 C 
ATOM      9  N   UNL     1      -0.228  49.310  68.985  0.00  0.00    +0.000 NA
ATOM     10  C   UNL     1      -1.684  49.053  69.147  0.00  0.00    +0.000 C 
ATOM     11  C   UNL     1      -2.145  47.639  68.723  0.00  0.00    +0.000 C 
ATOM     12  N   UNL     1      -3.252  45.226  69.874  0.00  0.00    +0.000 NA
ATOM     13  H   UNL     1      -4.569  42.617  71.194  0.00  0.00    +0.000 HD
ATOM     14  H   UNL     1      -5.256  43.759  70.122  0.00  0.00    +0.000 HD
ATOM     15  H   UNL     1      -0.425  44.650  71.139  0.00  0.00    +0.000 HD
ENDROOT
BRANCH   9  16
ATOM     16  C   UNL     1       0.199  49.363  67.572  0.00  0.00    +0.000 C 
BRANCH  16  17
ATOM     17  C   UNL     1      -0.175  50.676  66.873  0.00  0.00    +0.000 C 
BRANCH  17  18
ATOM     18  O   UNL     1      -0.863  50.392  65.651  0.00  0.00    +0.000 OA
BRANCH  18  19
ATOM     19  C   UNL     1      -2.191  50.082  65.787  0.00  0.00    +0.000 A 
ATOM     20  C   UNL     1      -2.802  48.901  65.355  0.00  0.00    +0.000 A 
ATOM     21  C   UNL     1      -4.166  48.690  65.571  0.00  0.00    +0.000 A 
ATOM     22  C   UNL     1      -4.919  49.662  66.223  0.00  0.00    +0.000 A 
ATOM     23 BR   UNL     1      -6.758  49.361  66.539  0.00  0.00    +0.000 Br
ATOM     24  C   UNL     1      -4.327  50.847  66.644  0.00  0.00    +0.000 A 
ATOM     25  C   UNL     1      -2.965  51.057  66.425  0.00  0.00    +0.000 A 
ENDBRANCH  18  19
ENDBRANCH  17  18
ENDBRANCH  16  17
ENDBRANCH   9  16
TORSDOF 4
ENDMDL
MODEL 7
REMARK VINA RESULT:      -7.1      4.705      7.825
REMARK  Name = CHEMBL1215473-210
REMARK  4 active torsions:
REMARK  status: ('A' for Active; 'I' for Inactive)
REMARK    1  A    between atoms: N_9  and  C_10
REMARK    2  A    between atoms: C_10  and  C_11
REMARK    3  A    between atoms: C_11  and  O_12
REMARK    4  A    between atoms: O_12  and  C_13
REMARK                            x       y       z     vdW  Elec       q    Type
REMARK                         _______ _______ _______ _____ _____    ______ ____
ROOT
ATOM      1  N   UNL     1       3.601  45.760  63.224  0.00  0.00    +0.000 N 
ATOM      2  C   UNL     1       2.988  46.900  63.520  0.00  0.00    +0.000 A 
ATOM      3  N   UNL     1       3.194  48.065  62.914  0.00  0.00    +0.000 NA
ATOM      4  N   UNL     1       2.371  48.862  63.611  0.00  0.00    +0.000 N 
ATOM      5  C   UNL     1       1.685  48.171  64.575  0.00  0.00    +0.000 A 
ATOM      6  N   UNL     1       0.838  48.756  65.457  0.00  0.00    +0.000 N 
ATOM      7  C   UNL     1       0.240  50.080  65.287  0.00  0.00    +0.000 C 
ATOM      8  C   UNL     1       0.247  50.847  66.634  0.00  0.00    +0.000 C 
ATOM      9  N   UNL     1      -0.328  50.108  67.786  0.00  0.00    +0.000 NA
ATOM     10  C   UNL     1       0.350  48.787  67.862  0.00  0.00    +0.000 C 
ATOM     11  C   UNL     1       0.299  47.954  66.559  0.00  0.00    +0.000 C 
ATOM     12  N   UNL     1       2.065  46.914  64.517  0.00  0.00    +0.000 NA
ATOM     13  H   UNL     1       4.086  45.707  62.340  0.00  0.00    +0.000 HD
ATOM     14  H   UNL     1       3.170  44.902  63.538  0.00  0.00    +0.000 HD
ATOM     15  H   UNL     1       2.360  49.851  63.416  0.00  0.00    +0.000 HD
ENDROOT
BRANCH   9  16
ATOM     16  C   UNL     1      -1.796  50.001  67.661  0.00  0.00    +0.000 C 
BRANCH  16  17
ATOM     17  C   UNL     1      -2.487  49.582  68.964  0.00  0.00    +0.000 C 
BRANCH  17  18
ATOM     18  O   UNL     1      -2.839  48.196  68.899  0.00  0.00    +0.000 OA
BRANCH  18  19
ATOM     19  C   UNL     1      -3.972  47.914  68.183  0.00  0.00    +0.000 A 
ATOM     20  C   UNL     1      -4.115  46.879  67.253  0.00  0.00    +0.000 A 
ATOM     21  C   UNL     1      -5.333  46.676  66.600  0.00  0.00    +0.000 A 
ATOM     22  C   UNL     1      -6.412  47.511  66.879  0.00  0.00    +0.000 A 
ATOM     23 BR   UNL     1      -8.066  47.217  66.014  0.00  0.00    +0.000 Br
ATOM     24  C   UNL     1      -6.279  48.553  67.790  0.00  0.00    +0.000 A 
ATOM     25  C   UNL     1      -5.061  48.755  68.439  0.00  0.00    +0.000 A 
ENDBRANCH  18  19
ENDBRANCH  17  18
ENDBRANCH  16  17
ENDBRANCH   9  16
TORSDOF 4
ENDMDL
MODEL 8
REMARK VINA RESULT:      -6.8      4.649      8.352
REMARK  Name = CHEMBL1215473-210
REMARK  4 active torsions:
REMARK  status: ('A' for Active; 'I' for Inactive)
REMARK    1  A    between atoms: N_9  and  C_10
REMARK    2  A    between atoms: C_10  and  C_11
REMARK    3  A    between atoms: C_11  and  O_12
REMARK    4  A    between atoms: O_12  and  C_13
REMARK                            x       y       z     vdW  Elec       q    Type
REMARK                         _______ _______ _______ _____ _____    ______ ____
ROOT
ATOM      1  N   UNL     1       2.336  52.468  60.056  0.00  0.00    +0.000 N 
ATOM      2  C   UNL     1       2.361  51.511  60.976  0.00  0.00    +0.000 A 
ATOM      3  N   UNL     1       3.278  50.554  61.068  0.00  0.00    +0.000 NA
ATOM      4  N   UNL     1       2.816  49.859  62.117  0.00  0.00    +0.000 N 
ATOM      5  C   UNL     1       1.676  50.415  62.638  0.00  0.00    +0.000 A 
ATOM      6  N   UNL     1       0.976  49.869  63.661  0.00  0.00    +0.000 N 
ATOM      7  C   UNL     1       1.500  48.870  64.592  0.00  0.00    +0.000 C 
ATOM      8  C   UNL     1       0.427  47.786  64.873  0.00  0.00    +0.000 C 
ATOM      9  N   UNL     1      -0.901  48.303  65.284  0.00  0.00    +0.000 NA
ATOM     10  C   UNL     1      -1.333  49.303  64.272  0.00  0.00    +0.000 C 
ATOM     11  C   UNL     1      -0.323  50.447  64.018  0.00  0.00    +0.000 C 
ATOM     12  N   UNL     1       1.385  51.478  61.922  0.00  0.00    +0.000 NA
ATOM     13  H   UNL     1       3.181  52.628  59.527  0.00  0.00    +0.000 HD
ATOM     14  H   UNL     1       1.779  53.288  60.250  0.00  0.00    +0.000 HD
ATOM     15  H   UNL     1       3.284  49.008  62.390  0.00  0.00    +0.000 HD
ENDROOT
BRANCH   9  16
ATOM     16  C   UNL     1      -0.851  48.850  66.656  0.00  0.00    +0.000 C 
BRANCH  16  17
ATOM     17  C   UNL     1      -1.389  47.880  67.716  0.00  0.00    +0.000 C 
BRANCH  17  18
ATOM     18  O   UNL     1      -1.105  48.390  69.022  0.00  0.00    +0.000 OA
BRANCH  18  19
ATOM     19  C   UNL     1       0.057  47.935  69.588  0.00  0.00    +0.000 A 
ATOM     20  C   UNL     1       1.117  47.333  68.903  0.00  0.00    +0.000 A 
ATOM     21  C   UNL     1       2.265  46.930  69.589  0.00  0.00    +0.000 A 
ATOM     22  C   UNL     1       2.353  47.131  70.963  0.00  0.00    +0.000 A 
ATOM     23 BR   UNL     1       3.920  46.608  71.884  0.00  0.00    +0.000 Br
ATOM     24  C   UNL     1       1.300  47.714  71.658  0.00  0.00    +0.000 A 
ATOM     25  C   UNL     1       0.154  48.115  70.971  0.00  0.00    +0.000 A 
ENDBRANCH  18  19
ENDBRANCH  17  18
ENDBRANCH  16  17
ENDBRANCH   9  16
TORSDOF 4
ENDMDL
MODEL 9
REMARK VINA RESULT:      -6.8      4.956      8.906
REMARK  Name = CHEMBL1215473-210
REMARK  4 active torsions:
REMARK  status: ('A' for Active; 'I' for Inactive)
REMARK    1  A    between atoms: N_9  and  C_10
REMARK    2  A    between atoms: C_10  and  C_11
REMARK    3  A    between atoms: C_11  and  O_12
REMARK    4  A    between atoms: O_12  and  C_13
REMARK                            x       y       z     vdW  Elec       q    Type
REMARK                         _______ _______ _______ _____ _____    ______ ____
ROOT
ATOM      1  N   UNL     1       5.057  48.328  61.204  0.00  0.00    +0.000 N 
ATOM      2  C   UNL     1       3.993  48.866  61.789  0.00  0.00    +0.000 A 
ATOM      3  N   UNL     1       3.528  50.091  61.565  0.00  0.00    +0.000 NA
ATOM      4  N   UNL     1       2.495  50.130  62.420  0.00  0.00    +0.000 N 
ATOM      5  C   UNL     1       2.348  48.950  63.100  0.00  0.00    +0.000 A 
ATOM      6  N   UNL     1       1.420  48.753  64.067  0.00  0.00    +0.000 N 
ATOM      7  C   UNL     1       0.229  49.579  64.262  0.00  0.00    +0.000 C 
ATOM      8  C   UNL     1      -0.005  49.831  65.774  0.00  0.00    +0.000 C 
ATOM      9  N   UNL     1      -0.013  48.615  66.624  0.00  0.00    +0.000 NA
ATOM     10  C   UNL     1       1.235  47.858  66.345  0.00  0.00    +0.000 C 
ATOM     11  C   UNL     1       1.469  47.517  64.854  0.00  0.00    +0.000 C 
ATOM     12  N   UNL     1       3.295  48.133  62.695  0.00  0.00    +0.000 NA
ATOM     13  H   UNL     1       5.408  48.778  60.372  0.00  0.00    +0.000 HD
ATOM     14  H   UNL     1       5.144  47.322  61.229  0.00  0.00    +0.000 HD
ATOM     15  H   UNL     1       1.974  50.988  62.524  0.00  0.00    +0.000 HD
ENDROOT
BRANCH   9  16
ATOM     16  C   UNL     1      -1.237  47.821  66.394  0.00  0.00    +0.000 C 
BRANCH  16  17
ATOM     17  C   UNL     1      -2.223  47.870  67.568  0.00  0.00    +0.000 C 
BRANCH  17  18
ATOM     18  O   UNL     1      -3.529  47.500  67.116  0.00  0.00    +0.000 OA
BRANCH  18  19
ATOM     19  C   UNL     1      -4.146  46.522  67.851  0.00  0.00    +0.000 A 
ATOM     20  C   UNL     1      -5.450  46.054  67.656  0.00  0.00    +0.000 A 
ATOM     21  C   UNL     1      -5.962  45.032  68.459  0.00  0.00    +0.000 A 
ATOM     22  C   UNL     1      -5.167  44.475  69.457  0.00  0.00    +0.000 A 
ATOM     23 BR   UNL     1      -5.855  43.073  70.522  0.00  0.00    +0.000 Br
ATOM     24  C   UNL     1      -3.875  44.941  69.670  0.00  0.00    +0.000 A 
ATOM     25  C   UNL     1      -3.366  45.964  68.869  0.00  0.00    +0.000 A 
ENDBRANCH  18  19
ENDBRANCH  17  18
ENDBRANCH  16  17
ENDBRANCH   9  16
TORSDOF 4
ENDMDL
