MODEL 1
REMARK VINA RESULT:      -8.9      0.000      0.000
REMARK  Name = CHEMBL4103842-970
REMARK  7 active torsions:
REMARK  status: ('A' for Active; 'I' for Inactive)
REMARK    1  A    between atoms: C_1  and  C_2
REMARK    2  A    between atoms: C_2  and  C_3
REMARK    3  A    between atoms: C_6  and  C_7
REMARK    4  A    between atoms: C_7  and  C_8
REMARK    5  A    between atoms: C_8  and  N_9
REMARK    6  A    between atoms: N_9  and  C_10
REMARK    7  A    between atoms: N_9  and  C_11
REMARK                            x       y       z     vdW  Elec       q    Type
REMARK                         _______ _______ _______ _____ _____    ______ ____
ROOT
ATOM      1  C   UNL     1      -1.046  48.064  69.003  0.00  0.00    +0.000 C 
ATOM      2  C   UNL     1      -0.669  47.800  70.486  0.00  0.00    +0.000 C 
ATOM      3  C   UNL     1      -0.624  46.319  70.878  0.00  0.00    +0.000 C 
ATOM      4  N   UNL     1      -1.816  45.613  70.404  0.00  0.00    +0.000 N 
ATOM      5  C   UNL     1      -2.600  44.943  71.285  0.00  0.00    +0.000 A 
ATOM      6  N   UNL     1      -2.578  44.960  72.598  0.00  0.00    +0.000 NA
ATOM      7  C   UNL     1      -3.549  44.078  72.949  0.00  0.00    +0.000 A 
ATOM      8  N   UNL     1      -3.779  43.862  74.243  0.00  0.00    +0.000 N 
ATOM      9  N   UNL     1      -4.211  43.518  71.946  0.00  0.00    +0.000 NA
ATOM     10  N   UNL     1      -3.574  44.062  70.894  0.00  0.00    +0.000 N 
ATOM     11  C   UNL     1      -2.163  45.800  69.006  0.00  0.00    +0.000 C 
ATOM     12  C   UNL     1      -2.362  47.290  68.755  0.00  0.00    +0.000 C 
ATOM     13  H   UNL     1      -3.437  44.565  74.882  0.00  0.00    +0.000 HD
ATOM     14  H   UNL     1      -4.666  43.451  74.486  0.00  0.00    +0.000 HD
ATOM     15  H   UNL     1      -3.831  43.772  69.963  0.00  0.00    +0.000 HD
ENDROOT
BRANCH   1  16
ATOM     16  N   UNL     1      -0.009  47.734  67.972  0.00  0.00    +0.000 NA
ATOM     17  C   UNL     1       1.342  47.669  68.548  0.00  0.00    +0.000 C 
BRANCH  16  18
ATOM     18  C   UNL     1      -0.032  48.741  66.871  0.00  0.00    +0.000 C 
BRANCH  18  19
ATOM     19  C   UNL     1      -0.306  48.182  65.466  0.00  0.00    +0.000 C 
BRANCH  19  23
ATOM     20  C   UNL     1       3.169  48.540  62.909  0.00  0.00    +0.000 A 
ATOM     21  C   UNL     1       2.904  47.344  63.588  0.00  0.00    +0.000 A 
ATOM     22  C   UNL     1       1.790  47.234  64.421  0.00  0.00    +0.000 A 
ATOM     23  C   UNL     1       0.905  48.310  64.569  0.00  0.00    +0.000 A 
ATOM     24  C   UNL     1       1.163  49.502  63.881  0.00  0.00    +0.000 A 
ATOM     25  C   UNL     1       2.280  49.613  63.050  0.00  0.00    +0.000 A 
BRANCH  20  27
ATOM     26  C   UNL     1       5.090  47.324  61.848  0.00  0.00    +0.000 C 
ATOM     27  C   UNL     1       4.388  48.659  62.033  0.00  0.00    +0.000 C 
ENDBRANCH  20  27
ENDBRANCH  19  23
ENDBRANCH  18  19
ENDBRANCH  16  18
ENDBRANCH   1  16
TORSDOF 5
ENDMDL
MODEL 2
REMARK VINA RESULT:      -8.6      3.970      5.504
REMARK  Name = CHEMBL4103842-970
REMARK  7 active torsions:
REMARK  status: ('A' for Active; 'I' for Inactive)
REMARK    1  A    between atoms: C_1  and  C_2
REMARK    2  A    between atoms: C_2  and  C_3
REMARK    3  A    between atoms: C_6  and  C_7
REMARK    4  A    between atoms: C_7  and  C_8
REMARK    5  A    between atoms: C_8  and  N_9
REMARK    6  A    between atoms: N_9  and  C_10
REMARK    7  A    between atoms: N_9  and  C_11
REMARK                            x       y       z     vdW  Elec       q    Type
REMARK                         _______ _______ _______ _____ _____    ______ ____
ROOT
ATOM      1  C   UNL     1      -3.452  46.662  67.964  0.00  0.00    +0.000 C 
ATOM      2  C   UNL     1      -4.906  46.187  67.696  0.00  0.00    +0.000 C 
ATOM      3  C   UNL     1      -5.702  45.832  68.956  0.00  0.00    +0.000 C 
ATOM      4  N   UNL     1      -4.922  44.971  69.847  0.00  0.00    +0.000 N 
ATOM      5  C   UNL     1      -5.415  43.768  70.228  0.00  0.00    +0.000 A 
ATOM      6  N   UNL     1      -6.460  43.116  69.773  0.00  0.00    +0.000 NA
ATOM      7  C   UNL     1      -6.503  41.997  70.542  0.00  0.00    +0.000 A 
ATOM      8  N   UNL     1      -7.473  41.110  70.326  0.00  0.00    +0.000 N 
ATOM      9  N   UNL     1      -5.536  41.876  71.441  0.00  0.00    +0.000 NA
ATOM     10  N   UNL     1      -4.869  43.027  71.244  0.00  0.00    +0.000 N 
ATOM     11  C   UNL     1      -3.574  45.418  70.157  0.00  0.00    +0.000 C 
ATOM     12  C   UNL     1      -2.806  45.572  68.850  0.00  0.00    +0.000 C 
ATOM     13  H   UNL     1      -7.939  41.164  69.432  0.00  0.00    +0.000 HD
ATOM     14  H   UNL     1      -7.327  40.179  70.684  0.00  0.00    +0.000 HD
ATOM     15  H   UNL     1      -4.088  43.249  71.842  0.00  0.00    +0.000 HD
ENDROOT
BRANCH   1  16
ATOM     16  N   UNL     1      -3.284  48.028  68.558  0.00  0.00    +0.000 NA
ATOM     17  C   UNL     1      -4.439  48.897  68.281  0.00  0.00    +0.000 C 
BRANCH  16  18
ATOM     18  C   UNL     1      -2.042  48.672  68.040  0.00  0.00    +0.000 C 
BRANCH  18  19
ATOM     19  C   UNL     1      -1.233  49.476  69.070  0.00  0.00    +0.000 C 
BRANCH  19  23
ATOM     20  C   UNL     1       2.121  47.212  70.609  0.00  0.00    +0.000 A 
ATOM     21  C   UNL     1       1.201  47.807  71.482  0.00  0.00    +0.000 A 
ATOM     22  C   UNL     1       0.127  48.546  70.985  0.00  0.00    +0.000 A 
ATOM     23  C   UNL     1      -0.062  48.681  69.604  0.00  0.00    +0.000 A 
ATOM     24  C   UNL     1       0.851  48.078  68.730  0.00  0.00    +0.000 A 
ATOM     25  C   UNL     1       1.927  47.340  69.228  0.00  0.00    +0.000 A 
BRANCH  20  27
ATOM     26  C   UNL     1       3.705  46.926  72.534  0.00  0.00    +0.000 C 
ATOM     27  C   UNL     1       3.292  46.439  71.154  0.00  0.00    +0.000 C 
ENDBRANCH  20  27
ENDBRANCH  19  23
ENDBRANCH  18  19
ENDBRANCH  16  18
ENDBRANCH   1  16
TORSDOF 5
ENDMDL
MODEL 3
REMARK VINA RESULT:      -8.5      1.487      2.621
REMARK  Name = CHEMBL4103842-970
REMARK  7 active torsions:
REMARK  status: ('A' for Active; 'I' for Inactive)
REMARK    1  A    between atoms: C_1  and  C_2
REMARK    2  A    between atoms: C_2  and  C_3
REMARK    3  A    between atoms: C_6  and  C_7
REMARK    4  A    between atoms: C_7  and  C_8
REMARK    5  A    between atoms: C_8  and  N_9
REMARK    6  A    between atoms: N_9  and  C_10
REMARK    7  A    between atoms: N_9  and  C_11
REMARK                            x       y       z     vdW  Elec       q    Type
REMARK                         _______ _______ _______ _____ _____    ______ ____
ROOT
ATOM      1  C   UNL     1      -1.069  48.444  66.604  0.00  0.00    +0.000 C 
ATOM      2  C   UNL     1      -2.543  48.029  66.856  0.00  0.00    +0.000 C 
ATOM      3  C   UNL     1      -2.908  47.836  68.332  0.00  0.00    +0.000 C 
ATOM      4  N   UNL     1      -1.906  47.019  69.020  0.00  0.00    +0.000 N 
ATOM      5  C   UNL     1      -2.282  45.886  69.661  0.00  0.00    +0.000 A 
ATOM      6  N   UNL     1      -3.433  45.254  69.626  0.00  0.00    +0.000 NA
ATOM      7  C   UNL     1      -3.256  44.215  70.483  0.00  0.00    +0.000 A 
ATOM      8  N   UNL     1      -4.267  43.368  70.677  0.00  0.00    +0.000 N 
ATOM      9  N   UNL     1      -2.058  44.123  71.043  0.00  0.00    +0.000 NA
ATOM     10  N   UNL     1      -1.460  45.213  70.526  0.00  0.00    +0.000 N 
ATOM     11  C   UNL     1      -0.519  47.417  68.844  0.00  0.00    +0.000 C 
ATOM     12  C   UNL     1      -0.201  47.406  67.354  0.00  0.00    +0.000 C 
ATOM     13  H   UNL     1      -4.990  43.365  69.973  0.00  0.00    +0.000 HD
ATOM     14  H   UNL     1      -4.037  42.467  71.066  0.00  0.00    +0.000 HD
ATOM     15  H   UNL     1      -0.525  45.445  70.823  0.00  0.00    +0.000 HD
ENDROOT
BRANCH   1  16
ATOM     16  N   UNL     1      -0.689  49.848  66.969  0.00  0.00    +0.000 NA
ATOM     17  C   UNL     1      -1.817  50.780  66.827  0.00  0.00    +0.000 C 
BRANCH  16  18
ATOM     18  C   UNL     1       0.451  50.313  66.127  0.00  0.00    +0.000 C 
BRANCH  18  19
ATOM     19  C   UNL     1       0.215  50.273  64.609  0.00  0.00    +0.000 C 
BRANCH  19  23
ATOM     20  C   UNL     1       3.395  48.193  62.536  0.00  0.00    +0.000 A 
ATOM     21  C   UNL     1       3.008  49.479  62.140  0.00  0.00    +0.000 A 
ATOM     22  C   UNL     1       1.975  50.144  62.802  0.00  0.00    +0.000 A 
ATOM     23  C   UNL     1       1.328  49.545  63.890  0.00  0.00    +0.000 A 
ATOM     24  C   UNL     1       1.722  48.263  64.294  0.00  0.00    +0.000 A 
ATOM     25  C   UNL     1       2.754  47.597  63.629  0.00  0.00    +0.000 A 
BRANCH  20  27
ATOM     26  C   UNL     1       4.439  45.970  62.025  0.00  0.00    +0.000 C 
ATOM     27  C   UNL     1       4.492  47.472  61.799  0.00  0.00    +0.000 C 
ENDBRANCH  20  27
ENDBRANCH  19  23
ENDBRANCH  18  19
ENDBRANCH  16  18
ENDBRANCH   1  16
TORSDOF 5
ENDMDL
MODEL 4
REMARK VINA RESULT:      -8.4      3.970      5.503
REMARK  Name = CHEMBL4103842-970
REMARK  7 active torsions:
REMARK  status: ('A' for Active; 'I' for Inactive)
REMARK    1  A    between atoms: C_1  and  C_2
REMARK    2  A    between atoms: C_2  and  C_3
REMARK    3  A    between atoms: C_6  and  C_7
REMARK    4  A    between atoms: C_7  and  C_8
REMARK    5  A    between atoms: C_8  and  N_9
REMARK    6  A    between atoms: N_9  and  C_10
REMARK    7  A    between atoms: N_9  and  C_11
REMARK                            x       y       z     vdW  Elec       q    Type
REMARK                         _______ _______ _______ _____ _____    ______ ____
ROOT
ATOM      1  C   UNL     1      -4.288  47.963  66.351  0.00  0.00    +0.000 C 
ATOM      2  C   UNL     1      -5.637  47.218  66.540  0.00  0.00    +0.000 C 
ATOM      3  C   UNL     1      -6.023  46.959  68.000  0.00  0.00    +0.000 C 
ATOM      4  N   UNL     1      -4.895  46.404  68.752  0.00  0.00    +0.000 N 
ATOM      5  C   UNL     1      -5.031  45.220  69.398  0.00  0.00    +0.000 A 
ATOM      6  N   UNL     1      -6.000  44.337  69.321  0.00  0.00    +0.000 NA
ATOM      7  C   UNL     1      -5.631  43.375  70.207  0.00  0.00    +0.000 A 
ATOM      8  N   UNL     1      -6.426  42.318  70.370  0.00  0.00    +0.000 N 
ATOM      9  N   UNL     1      -4.475  43.571  70.825  0.00  0.00    +0.000 NA
ATOM     10  N   UNL     1      -4.120  44.764  70.315  0.00  0.00    +0.000 N 
ATOM     11  C   UNL     1      -3.631  47.112  68.635  0.00  0.00    +0.000 C 
ATOM     12  C   UNL     1      -3.243  47.161  67.162  0.00  0.00    +0.000 C 
ATOM     13  H   UNL     1      -7.091  42.141  69.632  0.00  0.00    +0.000 HD
ATOM     14  H   UNL     1      -6.014  41.499  70.788  0.00  0.00    +0.000 HD
ATOM     15  H   UNL     1      -3.281  45.210  70.652  0.00  0.00    +0.000 HD
ENDROOT
BRANCH   1  16
ATOM     16  N   UNL     1      -4.264  49.420  66.704  0.00  0.00    +0.000 NA
ATOM     17  C   UNL     1      -5.371  50.158  66.079  0.00  0.00    +0.000 C 
BRANCH  16  18
ATOM     18  C   UNL     1      -2.965  50.031  66.298  0.00  0.00    +0.000 C 
BRANCH  18  19
ATOM     19  C   UNL     1      -2.291  50.921  67.355  0.00  0.00    +0.000 C 
BRANCH  19  23
ATOM     20  C   UNL     1       0.101  48.607  70.123  0.00  0.00    +0.000 A 
ATOM     21  C   UNL     1      -0.987  49.362  70.579  0.00  0.00    +0.000 A 
ATOM     22  C   UNL     1      -1.750  50.116  69.688  0.00  0.00    +0.000 A 
ATOM     23  C   UNL     1      -1.456  50.108  68.319  0.00  0.00    +0.000 A 
ATOM     24  C   UNL     1      -0.375  49.345  67.860  0.00  0.00    +0.000 A 
ATOM     25  C   UNL     1       0.391  48.592  68.753  0.00  0.00    +0.000 A 
BRANCH  20  27
ATOM     26  C   UNL     1       2.090  47.104  70.410  0.00  0.00    +0.000 C 
ATOM     27  C   UNL     1       0.936  47.817  71.096  0.00  0.00    +0.000 C 
ENDBRANCH  20  27
ENDBRANCH  19  23
ENDBRANCH  18  19
ENDBRANCH  16  18
ENDBRANCH   1  16
TORSDOF 5
ENDMDL
MODEL 5
REMARK VINA RESULT:      -8.0      3.625      9.063
REMARK  Name = CHEMBL4103842-970
REMARK  7 active torsions:
REMARK  status: ('A' for Active; 'I' for Inactive)
REMARK    1  A    between atoms: C_1  and  C_2
REMARK    2  A    between atoms: C_2  and  C_3
REMARK    3  A    between atoms: C_6  and  C_7
REMARK    4  A    between atoms: C_7  and  C_8
REMARK    5  A    between atoms: C_8  and  N_9
REMARK    6  A    between atoms: N_9  and  C_10
REMARK    7  A    between atoms: N_9  and  C_11
REMARK                            x       y       z     vdW  Elec       q    Type
REMARK                         _______ _______ _______ _____ _____    ______ ____
ROOT
ATOM      1  C   UNL     1      -0.113  47.676  67.232  0.00  0.00    +0.000 C 
ATOM      2  C   UNL     1       1.024  47.925  66.205  0.00  0.00    +0.000 C 
ATOM      3  C   UNL     1       1.375  49.401  65.988  0.00  0.00    +0.000 C 
ATOM      4  N   UNL     1       0.168  50.205  65.786  0.00  0.00    +0.000 N 
ATOM      5  C   UNL     1       0.035  50.954  64.664  0.00  0.00    +0.000 A 
ATOM      6  N   UNL     1       0.765  50.952  63.572  0.00  0.00    +0.000 NA
ATOM      7  C   UNL     1       0.202  51.922  62.806  0.00  0.00    +0.000 A 
ATOM      8  N   UNL     1       0.726  52.176  61.607  0.00  0.00    +0.000 N 
ATOM      9  N   UNL     1      -0.859  52.526  63.324  0.00  0.00    +0.000 NA
ATOM     10  N   UNL     1      -0.933  51.913  64.519  0.00  0.00    +0.000 N 
ATOM     11  C   UNL     1      -0.894  50.030  66.762  0.00  0.00    +0.000 C 
ATOM     12  C   UNL     1      -1.297  48.561  66.776  0.00  0.00    +0.000 C 
ATOM     13  H   UNL     1       1.311  51.454  61.213  0.00  0.00    +0.000 HD
ATOM     14  H   UNL     1       0.143  52.668  60.950  0.00  0.00    +0.000 HD
ATOM     15  H   UNL     1      -1.634  52.212  65.180  0.00  0.00    +0.000 HD
ENDROOT
BRANCH   1  16
ATOM     16  N   UNL     1       0.218  47.897  68.677  0.00  0.00    +0.000 NA
ATOM     17  C   UNL     1       1.439  47.184  69.079  0.00  0.00    +0.000 C 
BRANCH  16  18
ATOM     18  C   UNL     1      -0.918  47.466  69.543  0.00  0.00    +0.000 C 
BRANCH  18  19
ATOM     19  C   UNL     1      -1.085  45.947  69.710  0.00  0.00    +0.000 C 
BRANCH  19  23
ATOM     20  C   UNL     1      -5.208  44.717  69.235  0.00  0.00    +0.000 A 
ATOM     21  C   UNL     1      -4.405  44.150  70.234  0.00  0.00    +0.000 A 
ATOM     22  C   UNL     1      -3.073  44.540  70.378  0.00  0.00    +0.000 A 
ATOM     23  C   UNL     1      -2.527  45.523  69.544  0.00  0.00    +0.000 A 
ATOM     24  C   UNL     1      -3.332  46.098  68.552  0.00  0.00    +0.000 A 
ATOM     25  C   UNL     1      -4.665  45.706  68.406  0.00  0.00    +0.000 A 
BRANCH  20  27
ATOM     26  C   UNL     1      -7.371  45.090  68.020  0.00  0.00    +0.000 C 
ATOM     27  C   UNL     1      -6.637  44.271  69.069  0.00  0.00    +0.000 C 
ENDBRANCH  20  27
ENDBRANCH  19  23
ENDBRANCH  18  19
ENDBRANCH  16  18
ENDBRANCH   1  16
TORSDOF 5
ENDMDL
MODEL 6
REMARK VINA RESULT:      -8.0      2.111      4.078
REMARK  Name = CHEMBL4103842-970
REMARK  7 active torsions:
REMARK  status: ('A' for Active; 'I' for Inactive)
REMARK    1  A    between atoms: C_1  and  C_2
REMARK    2  A    between atoms: C_2  and  C_3
REMARK    3  A    between atoms: C_6  and  C_7
REMARK    4  A    between atoms: C_7  and  C_8
REMARK    5  A    between atoms: C_8  and  N_9
REMARK    6  A    between atoms: N_9  and  C_10
REMARK    7  A    between atoms: N_9  and  C_11
REMARK                            x       y       z     vdW  Elec       q    Type
REMARK                         _______ _______ _______ _____ _____    ______ ____
ROOT
ATOM      1  C   UNL     1      -0.785  49.367  65.119  0.00  0.00    +0.000 C 
ATOM      2  C   UNL     1      -1.794  48.237  65.464  0.00  0.00    +0.000 C 
ATOM      3  C   UNL     1      -2.325  48.275  66.901  0.00  0.00    +0.000 C 
ATOM      4  N   UNL     1      -1.233  48.448  67.861  0.00  0.00    +0.000 N 
ATOM      5  C   UNL     1      -1.057  47.544  68.856  0.00  0.00    +0.000 A 
ATOM      6  N   UNL     1      -1.619  46.368  69.020  0.00  0.00    +0.000 NA
ATOM      7  C   UNL     1      -1.104  45.925  70.196  0.00  0.00    +0.000 A 
ATOM      8  N   UNL     1      -1.489  44.734  70.653  0.00  0.00    +0.000 N 
ATOM      9  N   UNL     1      -0.227  46.728  70.782  0.00  0.00    +0.000 NA
ATOM     10  N   UNL     1      -0.230  47.766  69.926  0.00  0.00    +0.000 N 
ATOM     11  C   UNL     1      -0.302  49.532  67.591  0.00  0.00    +0.000 C 
ATOM     12  C   UNL     1       0.307  49.309  66.213  0.00  0.00    +0.000 C 
ATOM     13  H   UNL     1      -1.901  44.107  69.978  0.00  0.00    +0.000 HD
ATOM     14  H   UNL     1      -0.899  44.300  71.345  0.00  0.00    +0.000 HD
ATOM     15  H   UNL     1       0.320  48.582  70.145  0.00  0.00    +0.000 HD
ENDROOT
BRANCH   1  16
ATOM     16  N   UNL     1      -1.343  50.750  64.967  0.00  0.00    +0.000 NA
ATOM     17  C   UNL     1      -2.462  50.793  64.014  0.00  0.00    +0.000 C 
BRANCH  16  18
ATOM     18  C   UNL     1      -0.277  51.695  64.526  0.00  0.00    +0.000 C 
BRANCH  18  19
ATOM     19  C   UNL     1      -0.188  51.934  63.010  0.00  0.00    +0.000 C 
BRANCH  19  23
ATOM     20  C   UNL     1       3.435  50.244  61.349  0.00  0.00    +0.000 A 
ATOM     21  C   UNL     1       2.785  49.622  62.423  0.00  0.00    +0.000 A 
ATOM     22  C   UNL     1       1.624  50.174  62.965  0.00  0.00    +0.000 A 
ATOM     23  C   UNL     1       1.076  51.344  62.425  0.00  0.00    +0.000 A 
ATOM     24  C   UNL     1       1.719  51.961  61.344  0.00  0.00    +0.000 A 
ATOM     25  C   UNL     1       2.883  51.410  60.804  0.00  0.00    +0.000 A 
BRANCH  20  27
ATOM     26  C   UNL     1       5.242  48.530  61.655  0.00  0.00    +0.000 C 
ATOM     27  C   UNL     1       4.703  49.656  60.788  0.00  0.00    +0.000 C 
ENDBRANCH  20  27
ENDBRANCH  19  23
ENDBRANCH  18  19
ENDBRANCH  16  18
ENDBRANCH   1  16
TORSDOF 5
ENDMDL
MODEL 7
REMARK VINA RESULT:      -7.9      6.115     11.005
REMARK  Name = CHEMBL4103842-970
REMARK  7 active torsions:
REMARK  status: ('A' for Active; 'I' for Inactive)
REMARK    1  A    between atoms: C_1  and  C_2
REMARK    2  A    between atoms: C_2  and  C_3
REMARK    3  A    between atoms: C_6  and  C_7
REMARK    4  A    between atoms: C_7  and  C_8
REMARK    5  A    between atoms: C_8  and  N_9
REMARK    6  A    between atoms: N_9  and  C_10
REMARK    7  A    between atoms: N_9  and  C_11
REMARK                            x       y       z     vdW  Elec       q    Type
REMARK                         _______ _______ _______ _____ _____    ______ ____
ROOT
ATOM      1  C   UNL     1       4.288  48.550  62.253  0.00  0.00    +0.000 C 
ATOM      2  C   UNL     1       4.950  49.039  60.937  0.00  0.00    +0.000 C 
ATOM      3  C   UNL     1       4.635  48.180  59.708  0.00  0.00    +0.000 C 
ATOM      4  N   UNL     1       4.812  46.756  60.001  0.00  0.00    +0.000 N 
ATOM      5  C   UNL     1       5.655  46.011  59.247  0.00  0.00    +0.000 A 
ATOM      6  N   UNL     1       6.534  46.399  58.351  0.00  0.00    +0.000 NA
ATOM      7  C   UNL     1       7.061  45.236  57.890  0.00  0.00    +0.000 A 
ATOM      8  N   UNL     1       8.001  45.289  56.946  0.00  0.00    +0.000 N 
ATOM      9  N   UNL     1       6.598  44.128  58.452  0.00  0.00    +0.000 NA
ATOM     10  N   UNL     1       5.685  44.641  59.295  0.00  0.00    +0.000 N 
ATOM     11  C   UNL     1       4.159  46.259  61.201  0.00  0.00    +0.000 C 
ATOM     12  C   UNL     1       4.671  47.058  62.392  0.00  0.00    +0.000 C 
ATOM     13  H   UNL     1       8.475  46.173  56.837  0.00  0.00    +0.000 HD
ATOM     14  H   UNL     1       8.576  44.470  56.830  0.00  0.00    +0.000 HD
ATOM     15  H   UNL     1       5.112  44.013  59.838  0.00  0.00    +0.000 HD
ENDROOT
BRANCH   1  16
ATOM     16  N   UNL     1       2.808  48.755  62.384  0.00  0.00    +0.000 NA
ATOM     17  C   UNL     1       2.414  50.141  62.090  0.00  0.00    +0.000 C 
BRANCH  16  18
ATOM     18  C   UNL     1       2.352  48.388  63.757  0.00  0.00    +0.000 C 
BRANCH  18  19
ATOM     19  C   UNL     1       1.220  49.254  64.333  0.00  0.00    +0.000 C 
BRANCH  19  23
ATOM     20  C   UNL     1       0.612  48.476  68.547  0.00  0.00    +0.000 A 
ATOM     21  C   UNL     1       1.458  47.659  67.786  0.00  0.00    +0.000 A 
ATOM     22  C   UNL     1       1.644  47.904  66.425  0.00  0.00    +0.000 A 
ATOM     23  C   UNL     1       1.008  48.987  65.806  0.00  0.00    +0.000 A 
ATOM     24  C   UNL     1       0.171  49.811  66.568  0.00  0.00    +0.000 A 
ATOM     25  C   UNL     1      -0.018  49.564  67.930  0.00  0.00    +0.000 A 
BRANCH  20  27
ATOM     26  C   UNL     1      -0.744  49.009  70.590  0.00  0.00    +0.000 C 
ATOM     27  C   UNL     1       0.396  48.188  70.010  0.00  0.00    +0.000 C 
ENDBRANCH  20  27
ENDBRANCH  19  23
ENDBRANCH  18  19
ENDBRANCH  16  18
ENDBRANCH   1  16
TORSDOF 5
ENDMDL
MODEL 8
REMARK VINA RESULT:      -7.8      4.726      6.146
REMARK  Name = CHEMBL4103842-970
REMARK  7 active torsions:
REMARK  status: ('A' for Active; 'I' for Inactive)
REMARK    1  A    between atoms: C_1  and  C_2
REMARK    2  A    between atoms: C_2  and  C_3
REMARK    3  A    between atoms: C_6  and  C_7
REMARK    4  A    between atoms: C_7  and  C_8
REMARK    5  A    between atoms: C_8  and  N_9
REMARK    6  A    between atoms: N_9  and  C_10
REMARK    7  A    between atoms: N_9  and  C_11
REMARK                            x       y       z     vdW  Elec       q    Type
REMARK                         _______ _______ _______ _____ _____    ______ ____
ROOT
ATOM      1  C   UNL     1      -5.883  45.675  67.992  0.00  0.00    +0.000 C 
ATOM      2  C   UNL     1      -7.235  44.999  68.349  0.00  0.00    +0.000 C 
ATOM      3  C   UNL     1      -7.460  44.775  69.848  0.00  0.00    +0.000 C 
ATOM      4  N   UNL     1      -6.280  44.172  70.472  0.00  0.00    +0.000 N 
ATOM      5  C   UNL     1      -6.396  43.003  71.148  0.00  0.00    +0.000 A 
ATOM      6  N   UNL     1      -7.408  42.168  71.198  0.00  0.00    +0.000 NA
ATOM      7  C   UNL     1      -6.985  41.198  72.050  0.00  0.00    +0.000 A 
ATOM      8  N   UNL     1      -7.805  40.183  72.320  0.00  0.00    +0.000 N 
ATOM      9  N   UNL     1      -5.757  41.343  72.527  0.00  0.00    +0.000 NA
ATOM     10  N   UNL     1      -5.407  42.512  71.961  0.00  0.00    +0.000 N 
ATOM     11  C   UNL     1      -5.006  44.816  70.198  0.00  0.00    +0.000 C 
ATOM     12  C   UNL     1      -4.791  44.832  68.690  0.00  0.00    +0.000 C 
ATOM     13  H   UNL     1      -8.560  40.032  71.668  0.00  0.00    +0.000 HD
ATOM     14  H   UNL     1      -7.387  39.349  72.701  0.00  0.00    +0.000 HD
ATOM     15  H   UNL     1      -4.514  42.920  72.191  0.00  0.00    +0.000 HD
ENDROOT
BRANCH   1  16
ATOM     16  N   UNL     1      -5.748  47.132  68.318  0.00  0.00    +0.000 NA
ATOM     17  C   UNL     1      -6.954  47.893  67.957  0.00  0.00    +0.000 C 
BRANCH  16  18
ATOM     18  C   UNL     1      -4.565  47.714  67.619  0.00  0.00    +0.000 C 
BRANCH  18  19
ATOM     19  C   UNL     1      -3.971  48.978  68.260  0.00  0.00    +0.000 C 
BRANCH  19  23
ATOM     20  C   UNL     1      -0.239  48.128  70.281  0.00  0.00    +0.000 A 
ATOM     21  C   UNL     1      -0.786  47.208  69.378  0.00  0.00    +0.000 A 
ATOM     22  C   UNL     1      -1.995  47.478  68.736  0.00  0.00    +0.000 A 
ATOM     23  C   UNL     1      -2.665  48.686  68.965  0.00  0.00    +0.000 A 
ATOM     24  C   UNL     1      -2.113  49.612  69.859  0.00  0.00    +0.000 A 
ATOM     25  C   UNL     1      -0.904  49.339  70.504  0.00  0.00    +0.000 A 
BRANCH  20  27
ATOM     26  C   UNL     1       2.065  47.156  70.067  0.00  0.00    +0.000 C 
ATOM     27  C   UNL     1       1.053  47.816  70.989  0.00  0.00    +0.000 C 
ENDBRANCH  20  27
ENDBRANCH  19  23
ENDBRANCH  18  19
ENDBRANCH  16  18
ENDBRANCH   1  16
TORSDOF 5
ENDMDL
MODEL 9
REMARK VINA RESULT:      -7.8      3.710      5.597
REMARK  Name = CHEMBL4103842-970
REMARK  7 active torsions:
REMARK  status: ('A' for Active; 'I' for Inactive)
REMARK    1  A    between atoms: C_1  and  C_2
REMARK    2  A    between atoms: C_2  and  C_3
REMARK    3  A    between atoms: C_6  and  C_7
REMARK    4  A    between atoms: C_7  and  C_8
REMARK    5  A    between atoms: C_8  and  N_9
REMARK    6  A    between atoms: N_9  and  C_10
REMARK    7  A    between atoms: N_9  and  C_11
REMARK                            x       y       z     vdW  Elec       q    Type
REMARK                         _______ _______ _______ _____ _____    ______ ____
ROOT
ATOM      1  C   UNL     1       0.797  48.377  64.483  0.00  0.00    +0.000 C 
ATOM      2  C   UNL     1      -0.607  49.040  64.439  0.00  0.00    +0.000 C 
ATOM      3  C   UNL     1      -0.833  50.122  65.500  0.00  0.00    +0.000 C 
ATOM      4  N   UNL     1      -0.405  49.661  66.822  0.00  0.00    +0.000 N 
ATOM      5  C   UNL     1      -1.281  49.666  67.857  0.00  0.00    +0.000 A 
ATOM      6  N   UNL     1      -2.580  49.858  67.845  0.00  0.00    +0.000 NA
ATOM      7  C   UNL     1      -2.927  49.793  69.157  0.00  0.00    +0.000 A 
ATOM      8  N   UNL     1      -4.208  49.956  69.487  0.00  0.00    +0.000 N 
ATOM      9  N   UNL     1      -1.939  49.544  70.005  0.00  0.00    +0.000 NA
ATOM     10  N   UNL     1      -0.894  49.492  69.160  0.00  0.00    +0.000 N 
ATOM     11  C   UNL     1       0.926  49.083  66.903  0.00  0.00    +0.000 C 
ATOM     12  C   UNL     1       0.997  47.903  65.942  0.00  0.00    +0.000 C 
ATOM     13  H   UNL     1      -4.881  49.824  68.747  0.00  0.00    +0.000 HD
ATOM     14  H   UNL     1      -4.489  49.621  70.395  0.00  0.00    +0.000 HD
ATOM     15  H   UNL     1       0.034  49.367  69.536  0.00  0.00    +0.000 HD
ENDROOT
BRANCH   1  16
ATOM     16  N   UNL     1       1.952  49.205  64.007  0.00  0.00    +0.000 NA
ATOM     17  C   UNL     1       1.531  50.249  63.060  0.00  0.00    +0.000 C 
BRANCH  16  18
ATOM     18  C   UNL     1       2.984  48.339  63.367  0.00  0.00    +0.000 C 
BRANCH  18  19
ATOM     19  C   UNL     1       3.544  48.851  62.030  0.00  0.00    +0.000 C 
BRANCH  19  23
ATOM     20  C   UNL     1       5.965  45.848  60.066  0.00  0.00    +0.000 A 
ATOM     21  C   UNL     1       5.550  45.673  61.392  0.00  0.00    +0.000 A 
ATOM     22  C   UNL     1       4.779  46.647  62.027  0.00  0.00    +0.000 A 
ATOM     23  C   UNL     1       4.387  47.802  61.339  0.00  0.00    +0.000 A 
ATOM     24  C   UNL     1       4.792  47.973  60.010  0.00  0.00    +0.000 A 
ATOM     25  C   UNL     1       5.566  46.999  59.375  0.00  0.00    +0.000 A 
BRANCH  20  27
ATOM     26  C   UNL     1       7.125  45.159  57.950  0.00  0.00    +0.000 C 
ATOM     27  C   UNL     1       6.820  44.804  59.396  0.00  0.00    +0.000 C 
ENDBRANCH  20  27
ENDBRANCH  19  23
ENDBRANCH  18  19
ENDBRANCH  16  18
ENDBRANCH   1  16
TORSDOF 5
ENDMDL
