MODEL 1
REMARK VINA RESULT:      -8.3      0.000      0.000
REMARK  Name = CHEMBL4075848-134
REMARK  7 active torsions:
REMARK  status: ('A' for Active; 'I' for Inactive)
REMARK    1  A    between atoms: C_1  and  C_2
REMARK    2  A    between atoms: C_2  and  C_3
REMARK    3  A    between atoms: C_2  and  N_4
REMARK    4  A    between atoms: N_4  and  C_5
REMARK    5  A    between atoms: N_4  and  C_14
REMARK    6  A    between atoms: C_5  and  C_6
REMARK    7  A    between atoms: C_6  and  C_7
REMARK                            x       y       z     vdW  Elec       q    Type
REMARK                         _______ _______ _______ _____ _____    ______ ____
ROOT
ATOM      1  C   UNL     1      -0.962  49.963  67.681  0.00  0.00    +0.000 C 
ATOM      2  C   UNL     1      -0.266  48.969  68.647  0.00  0.00    +0.000 C 
ATOM      3  C   UNL     1      -0.547  47.524  68.251  0.00  0.00    +0.000 C 
ATOM      4  N   UNL     1      -1.973  47.292  68.448  0.00  0.00    +0.000 N 
ATOM      5  C   UNL     1      -2.349  46.226  69.202  0.00  0.00    +0.000 A 
ATOM      6  N   UNL     1      -1.586  45.444  69.935  0.00  0.00    +0.000 NA
ATOM      7  C   UNL     1      -2.460  44.564  70.495  0.00  0.00    +0.000 A 
ATOM      8  N   UNL     1      -1.992  43.647  71.337  0.00  0.00    +0.000 N 
ATOM      9  N   UNL     1      -3.735  44.747  70.175  0.00  0.00    +0.000 NA
ATOM     10  N   UNL     1      -3.641  45.789  69.332  0.00  0.00    +0.000 N 
ATOM     11  C   UNL     1      -2.868  48.196  67.730  0.00  0.00    +0.000 C 
ATOM     12  C   UNL     1      -2.469  49.667  67.972  0.00  0.00    +0.000 C 
ATOM     13  H   UNL     1      -1.073  43.821  71.724  0.00  0.00    +0.000 HD
ATOM     14  H   UNL     1      -2.657  43.236  71.974  0.00  0.00    +0.000 HD
ATOM     15  H   UNL     1      -4.475  46.141  68.886  0.00  0.00    +0.000 HD
ENDROOT
BRANCH   1  16
ATOM     16  N   UNL     1      -0.606  49.941  66.214  0.00  0.00    +0.000 NA
BRANCH  16  18
ATOM     17  C   UNL     1      -0.141  52.292  65.234  0.00  0.00    +0.000 C 
ATOM     18  C   UNL     1      -1.143  51.147  65.477  0.00  0.00    +0.000 C 
ATOM     19  C   UNL     1      -1.832  50.805  64.141  0.00  0.00    +0.000 C 
ENDBRANCH  16  18
BRANCH  16  20
ATOM     20  C   UNL     1       0.842  49.750  65.869  0.00  0.00    +0.000 C 
BRANCH  20  21
ATOM     21  C   UNL     1       1.240  48.651  64.868  0.00  0.00    +0.000 C 
BRANCH  21  22
ATOM     22  C   UNL     1       2.051  49.019  63.646  0.00  0.00    +0.000 A 
ATOM     23  C   UNL     1       1.700  50.204  62.963  0.00  0.00    +0.000 A 
ATOM     24  C   UNL     1       2.421  50.644  61.860  0.00  0.00    +0.000 A 
ATOM     25  C   UNL     1       3.525  49.912  61.438  0.00  0.00    +0.000 A 
ATOM     26 CL   UNL     1       4.439  50.457  60.090  0.00  0.00    +0.000 Cl
ATOM     27  C   UNL     1       3.892  48.744  62.106  0.00  0.00    +0.000 A 
ATOM     28  C   UNL     1       3.165  48.298  63.215  0.00  0.00    +0.000 A 
ENDBRANCH  21  22
ENDBRANCH  20  21
ENDBRANCH  16  20
ENDBRANCH   1  16
TORSDOF 5
ENDMDL
MODEL 2
REMARK VINA RESULT:      -8.3      4.982      8.350
REMARK  Name = CHEMBL4075848-134
REMARK  7 active torsions:
REMARK  status: ('A' for Active; 'I' for Inactive)
REMARK    1  A    between atoms: C_1  and  C_2
REMARK    2  A    between atoms: C_2  and  C_3
REMARK    3  A    between atoms: C_2  and  N_4
REMARK    4  A    between atoms: N_4  and  C_5
REMARK    5  A    between atoms: N_4  and  C_14
REMARK    6  A    between atoms: C_5  and  C_6
REMARK    7  A    between atoms: C_6  and  C_7
REMARK                            x       y       z     vdW  Elec       q    Type
REMARK                         _______ _______ _______ _____ _____    ______ ____
ROOT
ATOM      1  C   UNL     1      -1.625  49.618  69.307  0.00  0.00    +0.000 C 
ATOM      2  C   UNL     1      -3.146  49.724  69.018  0.00  0.00    +0.000 C 
ATOM      3  C   UNL     1      -3.475  49.256  67.606  0.00  0.00    +0.000 C 
ATOM      4  N   UNL     1      -2.859  50.202  66.683  0.00  0.00    +0.000 N 
ATOM      5  C   UNL     1      -3.641  50.764  65.726  0.00  0.00    +0.000 A 
ATOM      6  N   UNL     1      -4.950  50.698  65.610  0.00  0.00    +0.000 NA
ATOM      7  C   UNL     1      -5.220  51.449  64.507  0.00  0.00    +0.000 A 
ATOM      8  N   UNL     1      -6.488  51.612  64.139  0.00  0.00    +0.000 N 
ATOM      9  N   UNL     1      -4.164  52.001  63.922  0.00  0.00    +0.000 NA
ATOM     10  N   UNL     1      -3.169  51.533  64.694  0.00  0.00    +0.000 N 
ATOM     11  C   UNL     1      -1.416  50.386  66.832  0.00  0.00    +0.000 C 
ATOM     12  C   UNL     1      -1.051  50.671  68.304  0.00  0.00    +0.000 C 
ATOM     13  H   UNL     1      -7.188  51.405  64.840  0.00  0.00    +0.000 HD
ATOM     14  H   UNL     1      -6.690  52.405  63.550  0.00  0.00    +0.000 HD
ATOM     15  H   UNL     1      -2.214  51.763  64.464  0.00  0.00    +0.000 HD
ENDROOT
BRANCH   1  16
ATOM     16  N   UNL     1      -0.951  48.270  69.234  0.00  0.00    +0.000 NA
BRANCH  16  18
ATOM     17  C   UNL     1       0.905  47.970  71.014  0.00  0.00    +0.000 C 
ATOM     18  C   UNL     1       0.521  48.348  69.571  0.00  0.00    +0.000 C 
ATOM     19  C   UNL     1       1.425  47.564  68.600  0.00  0.00    +0.000 C 
ENDBRANCH  16  18
BRANCH  16  20
ATOM     20  C   UNL     1      -1.581  47.151  70.010  0.00  0.00    +0.000 C 
BRANCH  20  21
ATOM     21  C   UNL     1      -1.913  45.831  69.294  0.00  0.00    +0.000 C 
BRANCH  21  22
ATOM     22  C   UNL     1      -3.356  45.394  69.175  0.00  0.00    +0.000 A 
ATOM     23  C   UNL     1      -3.859  44.527  70.172  0.00  0.00    +0.000 A 
ATOM     24  C   UNL     1      -5.186  44.115  70.169  0.00  0.00    +0.000 A 
ATOM     25  C   UNL     1      -6.038  44.585  69.177  0.00  0.00    +0.000 A 
ATOM     26 CL   UNL     1      -7.686  44.101  69.176  0.00  0.00    +0.000 Cl
ATOM     27  C   UNL     1      -5.562  45.449  68.191  0.00  0.00    +0.000 A 
ATOM     28  C   UNL     1      -4.226  45.863  68.190  0.00  0.00    +0.000 A 
ENDBRANCH  21  22
ENDBRANCH  20  21
ENDBRANCH  16  20
ENDBRANCH   1  16
TORSDOF 5
ENDMDL
MODEL 3
REMARK VINA RESULT:      -8.1      5.020      7.071
REMARK  Name = CHEMBL4075848-134
REMARK  7 active torsions:
REMARK  status: ('A' for Active; 'I' for Inactive)
REMARK    1  A    between atoms: C_1  and  C_2
REMARK    2  A    between atoms: C_2  and  C_3
REMARK    3  A    between atoms: C_2  and  N_4
REMARK    4  A    between atoms: N_4  and  C_5
REMARK    5  A    between atoms: N_4  and  C_14
REMARK    6  A    between atoms: C_5  and  C_6
REMARK    7  A    between atoms: C_6  and  C_7
REMARK                            x       y       z     vdW  Elec       q    Type
REMARK                         _______ _______ _______ _____ _____    ______ ____
ROOT
ATOM      1  C   UNL     1      -1.716  50.032  67.874  0.00  0.00    +0.000 C 
ATOM      2  C   UNL     1      -0.351  49.370  67.550  0.00  0.00    +0.000 C 
ATOM      3  C   UNL     1      -0.177  48.059  68.307  0.00  0.00    +0.000 C 
ATOM      4  N   UNL     1      -0.098  48.388  69.726  0.00  0.00    +0.000 N 
ATOM      5  C   UNL     1       0.957  47.910  70.435  0.00  0.00    +0.000 A 
ATOM      6  N   UNL     1       2.035  47.312  69.977  0.00  0.00    +0.000 NA
ATOM      7  C   UNL     1       2.774  47.067  71.094  0.00  0.00    +0.000 A 
ATOM      8  N   UNL     1       3.965  46.490  70.959  0.00  0.00    +0.000 N 
ATOM      9  N   UNL     1       2.239  47.487  72.233  0.00  0.00    +0.000 NA
ATOM     10  N   UNL     1       1.074  47.994  71.798  0.00  0.00    +0.000 N 
ATOM     11  C   UNL     1      -1.230  49.138  70.267  0.00  0.00    +0.000 C 
ATOM     12  C   UNL     1      -1.538  50.371  69.390  0.00  0.00    +0.000 C 
ATOM     13  H   UNL     1       4.372  46.515  70.032  0.00  0.00    +0.000 HD
ATOM     14  H   UNL     1       4.617  46.613  71.719  0.00  0.00    +0.000 HD
ATOM     15  H   UNL     1       0.416  48.368  72.467  0.00  0.00    +0.000 HD
ENDROOT
BRANCH   1  16
ATOM     16  N   UNL     1      -2.991  49.289  67.558  0.00  0.00    +0.000 NA
BRANCH  16  18
ATOM     17  C   UNL     1      -4.630  50.744  66.180  0.00  0.00    +0.000 C 
ATOM     18  C   UNL     1      -4.197  50.200  67.555  0.00  0.00    +0.000 C 
ATOM     19  C   UNL     1      -5.433  49.602  68.257  0.00  0.00    +0.000 C 
ENDBRANCH  16  18
BRANCH  16  20
ATOM     20  C   UNL     1      -2.998  48.448  66.315  0.00  0.00    +0.000 C 
BRANCH  20  21
ATOM     21  C   UNL     1      -3.972  47.262  66.214  0.00  0.00    +0.000 C 
BRANCH  21  22
ATOM     22  C   UNL     1      -4.233  46.410  67.436  0.00  0.00    +0.000 A 
ATOM     23  C   UNL     1      -5.522  45.847  67.575  0.00  0.00    +0.000 A 
ATOM     24  C   UNL     1      -5.835  45.012  68.640  0.00  0.00    +0.000 A 
ATOM     25  C   UNL     1      -4.851  44.708  69.573  0.00  0.00    +0.000 A 
ATOM     26 CL   UNL     1      -5.219  43.658  70.882  0.00  0.00    +0.000 Cl
ATOM     27  C   UNL     1      -3.571  45.247  69.446  0.00  0.00    +0.000 A 
ATOM     28  C   UNL     1      -3.255  46.090  68.376  0.00  0.00    +0.000 A 
ENDBRANCH  21  22
ENDBRANCH  20  21
ENDBRANCH  16  20
ENDBRANCH   1  16
TORSDOF 5
ENDMDL
MODEL 4
REMARK VINA RESULT:      -8.1      4.945      7.120
REMARK  Name = CHEMBL4075848-134
REMARK  7 active torsions:
REMARK  status: ('A' for Active; 'I' for Inactive)
REMARK    1  A    between atoms: C_1  and  C_2
REMARK    2  A    between atoms: C_2  and  C_3
REMARK    3  A    between atoms: C_2  and  N_4
REMARK    4  A    between atoms: N_4  and  C_5
REMARK    5  A    between atoms: N_4  and  C_14
REMARK    6  A    between atoms: C_5  and  C_6
REMARK    7  A    between atoms: C_6  and  C_7
REMARK                            x       y       z     vdW  Elec       q    Type
REMARK                         _______ _______ _______ _____ _____    ______ ____
ROOT
ATOM      1  C   UNL     1      -2.235  44.601  70.018  0.00  0.00    +0.000 C 
ATOM      2  C   UNL     1      -3.709  44.128  69.924  0.00  0.00    +0.000 C 
ATOM      3  C   UNL     1      -4.575  44.799  70.983  0.00  0.00    +0.000 C 
ATOM      4  N   UNL     1      -4.117  44.319  72.282  0.00  0.00    +0.000 N 
ATOM      5  C   UNL     1      -5.039  43.796  73.131  0.00  0.00    +0.000 A 
ATOM      6  N   UNL     1      -6.296  43.503  72.880  0.00  0.00    +0.000 NA
ATOM      7  C   UNL     1      -6.755  42.988  74.054  0.00  0.00    +0.000 A 
ATOM      8  N   UNL     1      -8.011  42.555  74.114  0.00  0.00    +0.000 N 
ATOM      9  N   UNL     1      -5.861  42.921  75.032  0.00  0.00    +0.000 NA
ATOM     10  N   UNL     1      -4.786  43.463  74.437  0.00  0.00    +0.000 N 
ATOM     11  C   UNL     1      -2.701  44.533  72.575  0.00  0.00    +0.000 C 
ATOM     12  C   UNL     1      -1.820  44.028  71.412  0.00  0.00    +0.000 C 
ATOM     13  H   UNL     1      -8.467  42.378  73.228  0.00  0.00    +0.000 HD
ATOM     14  H   UNL     1      -8.229  41.899  74.849  0.00  0.00    +0.000 HD
ATOM     15  H   UNL     1      -3.935  43.582  74.965  0.00  0.00    +0.000 HD
ENDROOT
BRANCH   1  16
ATOM     16  N   UNL     1      -1.915  46.065  69.836  0.00  0.00    +0.000 NA
BRANCH  16  18
ATOM     17  C   UNL     1       0.336  46.736  68.745  0.00  0.00    +0.000 C 
ATOM     18  C   UNL     1      -0.442  46.354  70.019  0.00  0.00    +0.000 C 
ATOM     19  C   UNL     1      -0.144  47.403  71.109  0.00  0.00    +0.000 C 
ENDBRANCH  16  18
BRANCH  16  20
ATOM     20  C   UNL     1      -2.397  46.714  68.572  0.00  0.00    +0.000 C 
BRANCH  20  21
ATOM     21  C   UNL     1      -3.588  47.685  68.632  0.00  0.00    +0.000 C 
BRANCH  21  22
ATOM     22  C   UNL     1      -3.330  49.172  68.729  0.00  0.00    +0.000 A 
ATOM     23  C   UNL     1      -2.138  49.586  69.365  0.00  0.00    +0.000 A 
ATOM     24  C   UNL     1      -1.796  50.930  69.455  0.00  0.00    +0.000 A 
ATOM     25  C   UNL     1      -2.634  51.881  68.886  0.00  0.00    +0.000 A 
ATOM     26 CL   UNL     1      -2.210  53.544  68.970  0.00  0.00    +0.000 Cl
ATOM     27  C   UNL     1      -3.810  51.490  68.245  0.00  0.00    +0.000 A 
ATOM     28  C   UNL     1      -4.157  50.138  68.157  0.00  0.00    +0.000 A 
ENDBRANCH  21  22
ENDBRANCH  20  21
ENDBRANCH  16  20
ENDBRANCH   1  16
TORSDOF 5
ENDMDL
MODEL 5
REMARK VINA RESULT:      -8.0      3.846      7.141
REMARK  Name = CHEMBL4075848-134
REMARK  7 active torsions:
REMARK  status: ('A' for Active; 'I' for Inactive)
REMARK    1  A    between atoms: C_1  and  C_2
REMARK    2  A    between atoms: C_2  and  C_3
REMARK    3  A    between atoms: C_2  and  N_4
REMARK    4  A    between atoms: N_4  and  C_5
REMARK    5  A    between atoms: N_4  and  C_14
REMARK    6  A    between atoms: C_5  and  C_6
REMARK    7  A    between atoms: C_6  and  C_7
REMARK                            x       y       z     vdW  Elec       q    Type
REMARK                         _______ _______ _______ _____ _____    ______ ____
ROOT
ATOM      1  C   UNL     1      -1.792  49.247  65.233  0.00  0.00    +0.000 C 
ATOM      2  C   UNL     1      -1.233  47.837  64.906  0.00  0.00    +0.000 C 
ATOM      3  C   UNL     1       0.218  47.700  65.352  0.00  0.00    +0.000 C 
ATOM      4  N   UNL     1       1.010  48.609  64.531  0.00  0.00    +0.000 N 
ATOM      5  C   UNL     1       2.090  48.105  63.880  0.00  0.00    +0.000 A 
ATOM      6  N   UNL     1       2.441  46.844  63.751  0.00  0.00    +0.000 NA
ATOM      7  C   UNL     1       3.572  46.895  62.994  0.00  0.00    +0.000 A 
ATOM      8  N   UNL     1       4.162  45.753  62.650  0.00  0.00    +0.000 N 
ATOM      9  N   UNL     1       3.952  48.110  62.620  0.00  0.00    +0.000 NA
ATOM     10  N   UNL     1       3.016  48.866  63.215  0.00  0.00    +0.000 N 
ATOM     11  C   UNL     1       0.601  50.011  64.563  0.00  0.00    +0.000 C 
ATOM     12  C   UNL     1      -0.915  50.146  64.302  0.00  0.00    +0.000 C 
ATOM     13  H   UNL     1       3.600  44.915  62.734  0.00  0.00    +0.000 HD
ATOM     14  H   UNL     1       4.775  45.783  61.850  0.00  0.00    +0.000 HD
ATOM     15  H   UNL     1       3.068  49.871  63.136  0.00  0.00    +0.000 HD
ENDROOT
BRANCH   1  16
ATOM     16  N   UNL     1      -1.836  49.711  66.669  0.00  0.00    +0.000 NA
BRANCH  16  18
ATOM     17  C   UNL     1      -3.537  51.556  67.305  0.00  0.00    +0.000 C 
ATOM     18  C   UNL     1      -2.135  51.188  66.783  0.00  0.00    +0.000 C 
ATOM     19  C   UNL     1      -1.087  51.975  67.595  0.00  0.00    +0.000 C 
ENDBRANCH  16  18
BRANCH  16  20
ATOM     20  C   UNL     1      -2.729  48.948  67.602  0.00  0.00    +0.000 C 
BRANCH  20  21
ATOM     21  C   UNL     1      -2.441  48.978  69.113  0.00  0.00    +0.000 C 
BRANCH  21  22
ATOM     22  C   UNL     1      -1.132  48.425  69.630  0.00  0.00    +0.000 A 
ATOM     23  C   UNL     1      -0.481  47.450  68.842  0.00  0.00    +0.000 A 
ATOM     24  C   UNL     1       0.750  46.922  69.215  0.00  0.00    +0.000 A 
ATOM     25  C   UNL     1       1.358  47.383  70.376  0.00  0.00    +0.000 A 
ATOM     26 CL   UNL     1       2.890  46.756  70.837  0.00  0.00    +0.000 Cl
ATOM     27  C   UNL     1       0.734  48.351  71.162  0.00  0.00    +0.000 A 
ATOM     28  C   UNL     1      -0.506  48.881  70.789  0.00  0.00    +0.000 A 
ENDBRANCH  21  22
ENDBRANCH  20  21
ENDBRANCH  16  20
ENDBRANCH   1  16
TORSDOF 5
ENDMDL
MODEL 6
REMARK VINA RESULT:      -7.9      4.270      8.503
REMARK  Name = CHEMBL4075848-134
REMARK  7 active torsions:
REMARK  status: ('A' for Active; 'I' for Inactive)
REMARK    1  A    between atoms: C_1  and  C_2
REMARK    2  A    between atoms: C_2  and  C_3
REMARK    3  A    between atoms: C_2  and  N_4
REMARK    4  A    between atoms: N_4  and  C_5
REMARK    5  A    between atoms: N_4  and  C_14
REMARK    6  A    between atoms: C_5  and  C_6
REMARK    7  A    between atoms: C_6  and  C_7
REMARK                            x       y       z     vdW  Elec       q    Type
REMARK                         _______ _______ _______ _____ _____    ______ ____
ROOT
ATOM      1  C   UNL     1       0.020  48.935  68.207  0.00  0.00    +0.000 C 
ATOM      2  C   UNL     1      -0.058  50.028  67.109  0.00  0.00    +0.000 C 
ATOM      3  C   UNL     1      -0.229  49.411  65.726  0.00  0.00    +0.000 C 
ATOM      4  N   UNL     1       0.995  48.676  65.426  0.00  0.00    +0.000 N 
ATOM      5  C   UNL     1       1.630  48.941  64.256  0.00  0.00    +0.000 A 
ATOM      6  N   UNL     1       1.382  49.911  63.402  0.00  0.00    +0.000 NA
ATOM      7  C   UNL     1       2.316  49.738  62.428  0.00  0.00    +0.000 A 
ATOM      8  N   UNL     1       2.352  50.601  61.416  0.00  0.00    +0.000 N 
ATOM      9  N   UNL     1       3.154  48.726  62.616  0.00  0.00    +0.000 NA
ATOM     10  N   UNL     1       2.686  48.216  63.767  0.00  0.00    +0.000 N 
ATOM     11  C   UNL     1       1.370  47.648  66.395  0.00  0.00    +0.000 C 
ATOM     12  C   UNL     1       1.358  48.219  67.830  0.00  0.00    +0.000 C 
ATOM     13  H   UNL     1       1.875  51.482  61.562  0.00  0.00    +0.000 HD
ATOM     14  H   UNL     1       3.218  50.660  60.902  0.00  0.00    +0.000 HD
ATOM     15  H   UNL     1       3.116  47.389  64.153  0.00  0.00    +0.000 HD
ENDROOT
BRANCH   1  16
ATOM     16  N   UNL     1      -1.145  47.995  68.399  0.00  0.00    +0.000 NA
BRANCH  16  18
ATOM     17  C   UNL     1      -0.777  46.211  70.239  0.00  0.00    +0.000 C 
ATOM     18  C   UNL     1      -1.325  47.596  69.846  0.00  0.00    +0.000 C 
ATOM     19  C   UNL     1      -0.792  48.638  70.850  0.00  0.00    +0.000 C 
ENDBRANCH  16  18
BRANCH  16  20
ATOM     20  C   UNL     1      -2.467  48.426  67.833  0.00  0.00    +0.000 C 
BRANCH  20  21
ATOM     21  C   UNL     1      -3.231  47.473  66.898  0.00  0.00    +0.000 C 
BRANCH  21  22
ATOM     22  C   UNL     1      -4.284  46.554  67.474  0.00  0.00    +0.000 A 
ATOM     23  C   UNL     1      -5.500  46.429  66.765  0.00  0.00    +0.000 A 
ATOM     24  C   UNL     1      -6.503  45.569  67.195  0.00  0.00    +0.000 A 
ATOM     25  C   UNL     1      -6.293  44.801  68.334  0.00  0.00    +0.000 A 
ATOM     26 CL   UNL     1      -7.517  43.717  68.863  0.00  0.00    +0.000 Cl
ATOM     27  C   UNL     1      -5.096  44.904  69.042  0.00  0.00    +0.000 A 
ATOM     28  C   UNL     1      -4.086  45.771  68.612  0.00  0.00    +0.000 A 
ENDBRANCH  21  22
ENDBRANCH  20  21
ENDBRANCH  16  20
ENDBRANCH   1  16
TORSDOF 5
ENDMDL
MODEL 7
REMARK VINA RESULT:      -7.6      4.411      8.194
REMARK  Name = CHEMBL4075848-134
REMARK  7 active torsions:
REMARK  status: ('A' for Active; 'I' for Inactive)
REMARK    1  A    between atoms: C_1  and  C_2
REMARK    2  A    between atoms: C_2  and  C_3
REMARK    3  A    between atoms: C_2  and  N_4
REMARK    4  A    between atoms: N_4  and  C_5
REMARK    5  A    between atoms: N_4  and  C_14
REMARK    6  A    between atoms: C_5  and  C_6
REMARK    7  A    between atoms: C_6  and  C_7
REMARK                            x       y       z     vdW  Elec       q    Type
REMARK                         _______ _______ _______ _____ _____    ______ ____
ROOT
ATOM      1  C   UNL     1      -1.830  49.219  65.263  0.00  0.00    +0.000 C 
ATOM      2  C   UNL     1      -1.288  47.828  64.843  0.00  0.00    +0.000 C 
ATOM      3  C   UNL     1       0.148  47.629  65.310  0.00  0.00    +0.000 C 
ATOM      4  N   UNL     1       0.976  48.581  64.579  0.00  0.00    +0.000 N 
ATOM      5  C   UNL     1       2.063  48.107  63.917  0.00  0.00    +0.000 A 
ATOM      6  N   UNL     1       2.395  46.852  63.700  0.00  0.00    +0.000 NA
ATOM      7  C   UNL     1       3.544  46.938  62.975  0.00  0.00    +0.000 A 
ATOM      8  N   UNL     1       4.122  45.814  62.560  0.00  0.00    +0.000 N 
ATOM      9  N   UNL     1       3.955  48.169  62.705  0.00  0.00    +0.000 NA
ATOM     10  N   UNL     1       3.018  48.898  63.333  0.00  0.00    +0.000 N 
ATOM     11  C   UNL     1       0.592  49.985  64.708  0.00  0.00    +0.000 C 
ATOM     12  C   UNL     1      -0.914  50.169  64.423  0.00  0.00    +0.000 C 
ATOM     13  H   UNL     1       3.543  44.983  62.567  0.00  0.00    +0.000 HD
ATOM     14  H   UNL     1       4.754  45.892  61.778  0.00  0.00    +0.000 HD
ATOM     15  H   UNL     1       3.090  49.904  63.332  0.00  0.00    +0.000 HD
ENDROOT
BRANCH   1  16
ATOM     16  N   UNL     1      -1.900  49.574  66.728  0.00  0.00    +0.000 NA
BRANCH  16  18
ATOM     17  C   UNL     1      -3.882  51.219  66.459  0.00  0.00    +0.000 C 
ATOM     18  C   UNL     1      -2.445  50.967  66.954  0.00  0.00    +0.000 C 
ATOM     19  C   UNL     1      -2.335  51.450  68.414  0.00  0.00    +0.000 C 
ENDBRANCH  16  18
BRANCH  16  20
ATOM     20  C   UNL     1      -2.615  48.608  67.628  0.00  0.00    +0.000 C 
BRANCH  20  21
ATOM     21  C   UNL     1      -3.550  47.555  67.010  0.00  0.00    +0.000 C 
BRANCH  21  22
ATOM     22  C   UNL     1      -4.065  46.423  67.870  0.00  0.00    +0.000 A 
ATOM     23  C   UNL     1      -3.226  45.962  68.910  0.00  0.00    +0.000 A 
ATOM     24  C   UNL     1      -3.638  44.960  69.780  0.00  0.00    +0.000 A 
ATOM     25  C   UNL     1      -4.910  44.420  69.635  0.00  0.00    +0.000 A 
ATOM     26 CL   UNL     1      -5.440  43.196  70.720  0.00  0.00    +0.000 Cl
ATOM     27  C   UNL     1      -5.755  44.869  68.621  0.00  0.00    +0.000 A 
ATOM     28  C   UNL     1      -5.341  45.875  67.742  0.00  0.00    +0.000 A 
ENDBRANCH  21  22
ENDBRANCH  20  21
ENDBRANCH  16  20
ENDBRANCH   1  16
TORSDOF 5
ENDMDL
MODEL 8
REMARK VINA RESULT:      -7.5      5.314      7.573
REMARK  Name = CHEMBL4075848-134
REMARK  7 active torsions:
REMARK  status: ('A' for Active; 'I' for Inactive)
REMARK    1  A    between atoms: C_1  and  C_2
REMARK    2  A    between atoms: C_2  and  C_3
REMARK    3  A    between atoms: C_2  and  N_4
REMARK    4  A    between atoms: N_4  and  C_5
REMARK    5  A    between atoms: N_4  and  C_14
REMARK    6  A    between atoms: C_5  and  C_6
REMARK    7  A    between atoms: C_6  and  C_7
REMARK                            x       y       z     vdW  Elec       q    Type
REMARK                         _______ _______ _______ _____ _____    ______ ____
ROOT
ATOM      1  C   UNL     1      -1.686  45.613  69.812  0.00  0.00    +0.000 C 
ATOM      2  C   UNL     1      -2.873  44.634  69.617  0.00  0.00    +0.000 C 
ATOM      3  C   UNL     1      -3.970  44.881  70.645  0.00  0.00    +0.000 C 
ATOM      4  N   UNL     1      -3.422  44.538  71.952  0.00  0.00    +0.000 N 
ATOM      5  C   UNL     1      -4.117  43.668  72.729  0.00  0.00    +0.000 A 
ATOM      6  N   UNL     1      -5.164  42.944  72.395  0.00  0.00    +0.000 NA
ATOM      7  C   UNL     1      -5.446  42.237  73.524  0.00  0.00    +0.000 A 
ATOM      8  N   UNL     1      -6.452  41.367  73.497  0.00  0.00    +0.000 N 
ATOM      9  N   UNL     1      -4.634  42.455  74.550  0.00  0.00    +0.000 NA
ATOM     10  N   UNL     1      -3.815  43.386  74.036  0.00  0.00    +0.000 N 
ATOM     11  C   UNL     1      -2.201  45.246  72.334  0.00  0.00    +0.000 C 
ATOM     12  C   UNL     1      -1.147  45.164  71.209  0.00  0.00    +0.000 C 
ATOM     13  H   UNL     1      -6.772  41.080  72.580  0.00  0.00    +0.000 HD
ATOM     14  H   UNL     1      -6.441  40.640  74.197  0.00  0.00    +0.000 HD
ATOM     15  H   UNL     1      -3.091  43.784  74.616  0.00  0.00    +0.000 HD
ENDROOT
BRANCH   1  16
ATOM     16  N   UNL     1      -1.926  47.099  69.697  0.00  0.00    +0.000 NA
BRANCH  16  18
ATOM     17  C   UNL     1       0.272  48.219  68.909  0.00  0.00    +0.000 C 
ATOM     18  C   UNL     1      -0.701  47.906  70.062  0.00  0.00    +0.000 C 
ATOM     19  C   UNL     1      -1.019  49.217  70.807  0.00  0.00    +0.000 C 
ENDBRANCH  16  18
BRANCH  16  20
ATOM     20  C   UNL     1      -2.481  47.599  68.395  0.00  0.00    +0.000 C 
BRANCH  20  21
ATOM     21  C   UNL     1      -3.837  48.325  68.384  0.00  0.00    +0.000 C 
BRANCH  21  22
ATOM     22  C   UNL     1      -5.070  47.588  67.911  0.00  0.00    +0.000 A 
ATOM     23  C   UNL     1      -6.313  48.249  68.035  0.00  0.00    +0.000 A 
ATOM     24  C   UNL     1      -7.490  47.667  67.582  0.00  0.00    +0.000 A 
ATOM     25  C   UNL     1      -7.436  46.419  66.973  0.00  0.00    +0.000 A 
ATOM     26 CL   UNL     1      -8.882  45.699  66.387  0.00  0.00    +0.000 Cl
ATOM     27  C   UNL     1      -6.217  45.755  66.833  0.00  0.00    +0.000 A 
ATOM     28  C   UNL     1      -5.032  46.338  67.292  0.00  0.00    +0.000 A 
ENDBRANCH  21  22
ENDBRANCH  20  21
ENDBRANCH  16  20
ENDBRANCH   1  16
TORSDOF 5
ENDMDL
MODEL 9
REMARK VINA RESULT:      -7.5      3.992      5.184
REMARK  Name = CHEMBL4075848-134
REMARK  7 active torsions:
REMARK  status: ('A' for Active; 'I' for Inactive)
REMARK    1  A    between atoms: C_1  and  C_2
REMARK    2  A    between atoms: C_2  and  C_3
REMARK    3  A    between atoms: C_2  and  N_4
REMARK    4  A    between atoms: N_4  and  C_5
REMARK    5  A    between atoms: N_4  and  C_14
REMARK    6  A    between atoms: C_5  and  C_6
REMARK    7  A    between atoms: C_6  and  C_7
REMARK                            x       y       z     vdW  Elec       q    Type
REMARK                         _______ _______ _______ _____ _____    ______ ____
ROOT
ATOM      1  C   UNL     1      -3.836  48.490  67.264  0.00  0.00    +0.000 C 
ATOM      2  C   UNL     1      -3.441  47.864  68.627  0.00  0.00    +0.000 C 
ATOM      3  C   UNL     1      -3.312  46.349  68.524  0.00  0.00    +0.000 C 
ATOM      4  N   UNL     1      -4.642  45.820  68.248  0.00  0.00    +0.000 N 
ATOM      5  C   UNL     1      -5.118  44.836  69.054  0.00  0.00    +0.000 A 
ATOM      6  N   UNL     1      -4.602  44.391  70.179  0.00  0.00    +0.000 NA
ATOM      7  C   UNL     1      -5.479  43.433  70.586  0.00  0.00    +0.000 A 
ATOM      8  N   UNL     1      -5.251  42.806  71.738  0.00  0.00    +0.000 N 
ATOM      9  N   UNL     1      -6.530  43.252  69.797  0.00  0.00    +0.000 NA
ATOM     10  N   UNL     1      -6.270  44.132  68.817  0.00  0.00    +0.000 N 
ATOM     11  C   UNL     1      -5.303  46.354  67.059  0.00  0.00    +0.000 C 
ATOM     12  C   UNL     1      -5.268  47.897  67.060  0.00  0.00    +0.000 C 
ATOM     13  H   UNL     1      -4.604  43.256  72.373  0.00  0.00    +0.000 HD
ATOM     14  H   UNL     1      -6.044  42.361  72.175  0.00  0.00    +0.000 HD
ATOM     15  H   UNL     1      -6.898  44.196  68.029  0.00  0.00    +0.000 HD
ENDROOT
BRANCH   1  16
ATOM     16  N   UNL     1      -2.923  48.310  66.075  0.00  0.00    +0.000 NA
BRANCH  16  18
ATOM     17  C   UNL     1      -3.502  50.770  65.507  0.00  0.00    +0.000 C 
ATOM     18  C   UNL     1      -3.166  49.352  65.006  0.00  0.00    +0.000 C 
ATOM     19  C   UNL     1      -2.032  49.453  63.966  0.00  0.00    +0.000 C 
ENDBRANCH  16  18
BRANCH  16  20
ATOM     20  C   UNL     1      -1.452  48.218  66.355  0.00  0.00    +0.000 C 
BRANCH  20  21
ATOM     21  C   UNL     1      -0.833  49.125  67.433  0.00  0.00    +0.000 C 
BRANCH  21  22
ATOM     22  C   UNL     1       0.047  48.514  68.501  0.00  0.00    +0.000 A 
ATOM     23  C   UNL     1       1.145  47.734  68.073  0.00  0.00    +0.000 A 
ATOM     24  C   UNL     1       2.033  47.176  68.984  0.00  0.00    +0.000 A 
ATOM     25  C   UNL     1       1.847  47.411  70.341  0.00  0.00    +0.000 A 
ATOM     26 CL   UNL     1       2.952  46.745  71.476  0.00  0.00    +0.000 Cl
ATOM     27  C   UNL     1       0.774  48.186  70.781  0.00  0.00    +0.000 A 
ATOM     28  C   UNL     1      -0.123  48.746  69.865  0.00  0.00    +0.000 A 
ENDBRANCH  21  22
ENDBRANCH  20  21
ENDBRANCH  16  20
ENDBRANCH   1  16
TORSDOF 5
ENDMDL
