MODEL 1
REMARK VINA RESULT:     -11.0      0.000      0.000
REMARK  Name = CHEMBL4084573-3.4
REMARK  6 active torsions:
REMARK  status: ('A' for Active; 'I' for Inactive)
REMARK    1  A    between atoms: C_9  and  N_10
REMARK    2  A    between atoms: N_10  and  C_11
REMARK    3  A    between atoms: N_10  and  C_20
REMARK    4  A    between atoms: C_11  and  C_12
REMARK    5  A    between atoms: C_12  and  C_13
REMARK    6  A    between atoms: C_20  and  C_21
REMARK                            x       y       z     vdW  Elec       q    Type
REMARK                         _______ _______ _______ _____ _____    ______ ____
ROOT
ATOM      1  N   UNL     1      -1.075  47.963  67.151  0.00  0.00    +0.000 NA
ENDROOT
BRANCH   1  10
ATOM      2  N   UNL     1       3.617  47.572  73.828  0.00  0.00    +0.000 N 
ATOM      3  C   UNL     1       3.346  47.187  72.584  0.00  0.00    +0.000 A 
ATOM      4  N   UNL     1       4.142  46.448  71.820  0.00  0.00    +0.000 NA
ATOM      5  N   UNL     1       3.394  46.336  70.713  0.00  0.00    +0.000 N 
ATOM      6  C   UNL     1       2.198  46.996  70.832  0.00  0.00    +0.000 A 
ATOM      7  N   UNL     1       1.255  47.006  69.851  0.00  0.00    +0.000 N 
ATOM      8  C   UNL     1       1.580  46.825  68.442  0.00  0.00    +0.000 C 
ATOM      9  C   UNL     1       1.415  48.142  67.689  0.00  0.00    +0.000 C 
ATOM     10  C   UNL     1      -0.007  48.745  67.852  0.00  0.00    +0.000 C 
ATOM     11  C   UNL     1      -0.190  48.930  69.378  0.00  0.00    +0.000 C 
ATOM     12  C   UNL     1      -0.054  47.609  70.127  0.00  0.00    +0.000 C 
ATOM     13  N   UNL     1       2.147  47.519  72.037  0.00  0.00    +0.000 NA
ATOM     14  H   UNL     1       4.337  47.050  74.310  0.00  0.00    +0.000 HD
ATOM     15  H   UNL     1       2.824  47.825  74.400  0.00  0.00    +0.000 HD
ATOM     16  H   UNL     1       3.732  45.778  69.943  0.00  0.00    +0.000 HD
ENDBRANCH   1  10
BRANCH   1  17
ATOM     17  C   UNL     1      -2.447  48.412  67.505  0.00  0.00    +0.000 C 
BRANCH  17  18
ATOM     18  C   UNL     1      -3.594  47.583  66.881  0.00  0.00    +0.000 C 
BRANCH  18  19
ATOM     19  C   UNL     1      -4.087  46.480  67.793  0.00  0.00    +0.000 A 
ATOM     20  C   UNL     1      -5.369  45.935  67.625  0.00  0.00    +0.000 A 
ATOM     21  C   UNL     1      -5.828  44.927  68.476  0.00  0.00    +0.000 A 
ATOM     22  C   UNL     1      -5.010  44.467  69.506  0.00  0.00    +0.000 A 
ATOM     23 CL   UNL     1      -5.585  43.246  70.574  0.00  0.00    +0.000 Cl
ATOM     24  C   UNL     1      -3.733  44.994  69.679  0.00  0.00    +0.000 A 
ATOM     25  C   UNL     1      -3.272  45.997  68.825  0.00  0.00    +0.000 A 
ENDBRANCH  18  19
ENDBRANCH  17  18
ENDBRANCH   1  17
BRANCH   1  26
ATOM     26  C   UNL     1      -0.891  47.853  65.671  0.00  0.00    +0.000 C 
BRANCH  26  27
ATOM     27  C   UNL     1      -0.338  49.072  64.929  0.00  0.00    +0.000 A 
ATOM     28  C   UNL     1      -1.052  50.290  65.015  0.00  0.00    +0.000 A 
ATOM     29  C   UNL     1      -0.692  51.411  64.281  0.00  0.00    +0.000 A 
ATOM     30  C   UNL     1       0.420  51.359  63.463  0.00  0.00    +0.000 A 
ATOM     31  C   UNL     1       1.207  50.205  63.404  0.00  0.00    +0.000 A 
ATOM     32  C   UNL     1       2.354  50.218  62.588  0.00  0.00    +0.000 A 
ATOM     33  C   UNL     1       3.192  49.112  62.515  0.00  0.00    +0.000 A 
ATOM     34  C   UNL     1       2.906  47.986  63.274  0.00  0.00    +0.000 A 
ATOM     35  C   UNL     1       1.771  47.964  64.089  0.00  0.00    +0.000 A 
ATOM     36  C   UNL     1       0.864  49.049  64.155  0.00  0.00    +0.000 A 
ENDBRANCH  26  27
ENDBRANCH   1  26
TORSDOF 6
ENDMDL
MODEL 2
REMARK VINA RESULT:     -10.8      4.523      8.792
REMARK  Name = CHEMBL4084573-3.4
REMARK  6 active torsions:
REMARK  status: ('A' for Active; 'I' for Inactive)
REMARK    1  A    between atoms: C_9  and  N_10
REMARK    2  A    between atoms: N_10  and  C_11
REMARK    3  A    between atoms: N_10  and  C_20
REMARK    4  A    between atoms: C_11  and  C_12
REMARK    5  A    between atoms: C_12  and  C_13
REMARK    6  A    between atoms: C_20  and  C_21
REMARK                            x       y       z     vdW  Elec       q    Type
REMARK                         _______ _______ _______ _____ _____    ______ ____
ROOT
ATOM      1  N   UNL     1      -3.385  48.790  67.140  0.00  0.00    +0.000 NA
ENDROOT
BRANCH   1  10
ATOM      2  N   UNL     1      -4.648  53.579  60.642  0.00  0.00    +0.000 N 
ATOM      3  C   UNL     1      -4.285  52.409  61.159  0.00  0.00    +0.000 A 
ATOM      4  N   UNL     1      -4.060  51.299  60.465  0.00  0.00    +0.000 NA
ATOM      5  N   UNL     1      -3.708  50.456  61.445  0.00  0.00    +0.000 N 
ATOM      6  C   UNL     1      -3.733  51.060  62.676  0.00  0.00    +0.000 A 
ATOM      7  N   UNL     1      -3.388  50.417  63.825  0.00  0.00    +0.000 N 
ATOM      8  C   UNL     1      -3.494  48.972  63.984  0.00  0.00    +0.000 C 
ATOM      9  C   UNL     1      -4.644  48.627  64.924  0.00  0.00    +0.000 C 
ATOM     10  C   UNL     1      -4.510  49.323  66.306  0.00  0.00    +0.000 C 
ATOM     11  C   UNL     1      -4.464  50.837  65.988  0.00  0.00    +0.000 C 
ATOM     12  C   UNL     1      -3.297  51.186  65.072  0.00  0.00    +0.000 C 
ATOM     13  N   UNL     1      -4.072  52.317  62.499  0.00  0.00    +0.000 NA
ATOM     14  H   UNL     1      -4.477  53.701  59.652  0.00  0.00    +0.000 HD
ATOM     15  H   UNL     1      -4.460  54.395  61.206  0.00  0.00    +0.000 HD
ATOM     16  H   UNL     1      -3.433  49.513  61.212  0.00  0.00    +0.000 HD
ENDBRANCH   1  10
BRANCH   1  17
ATOM     17  C   UNL     1      -3.511  49.149  68.578  0.00  0.00    +0.000 C 
BRANCH  17  18
ATOM     18  C   UNL     1      -2.398  50.072  69.127  0.00  0.00    +0.000 C 
BRANCH  18  19
ATOM     19  C   UNL     1      -1.137  49.317  69.493  0.00  0.00    +0.000 A 
ATOM     20  C   UNL     1      -0.266  48.858  68.492  0.00  0.00    +0.000 A 
ATOM     21  C   UNL     1       0.890  48.150  68.830  0.00  0.00    +0.000 A 
ATOM     22  C   UNL     1       1.174  47.889  70.169  0.00  0.00    +0.000 A 
ATOM     23 CL   UNL     1       2.583  46.992  70.585  0.00  0.00    +0.000 Cl
ATOM     24  C   UNL     1       0.323  48.346  71.171  0.00  0.00    +0.000 A 
ATOM     25  C   UNL     1      -0.830  49.059  70.835  0.00  0.00    +0.000 A 
ENDBRANCH  18  19
ENDBRANCH  17  18
ENDBRANCH   1  17
BRANCH   1  26
ATOM     26  C   UNL     1      -3.113  47.333  66.953  0.00  0.00    +0.000 C 
BRANCH  26  27
ATOM     27  C   UNL     1      -3.909  46.343  67.807  0.00  0.00    +0.000 A 
ATOM     28  C   UNL     1      -5.230  46.028  67.412  0.00  0.00    +0.000 A 
ATOM     29  C   UNL     1      -6.065  45.238  68.188  0.00  0.00    +0.000 A 
ATOM     30  C   UNL     1      -5.590  44.704  69.370  0.00  0.00    +0.000 A 
ATOM     31  C   UNL     1      -4.266  44.918  69.766  0.00  0.00    +0.000 A 
ATOM     32  C   UNL     1      -3.818  44.317  70.957  0.00  0.00    +0.000 A 
ATOM     33  C   UNL     1      -2.505  44.466  71.385  0.00  0.00    +0.000 A 
ATOM     34  C   UNL     1      -1.615  45.202  70.614  0.00  0.00    +0.000 A 
ATOM     35  C   UNL     1      -2.049  45.801  69.428  0.00  0.00    +0.000 A 
ATOM     36  C   UNL     1      -3.390  45.715  68.982  0.00  0.00    +0.000 A 
ENDBRANCH  26  27
ENDBRANCH   1  26
TORSDOF 6
ENDMDL
MODEL 3
REMARK VINA RESULT:     -10.7      3.577      7.515
REMARK  Name = CHEMBL4084573-3.4
REMARK  6 active torsions:
REMARK  status: ('A' for Active; 'I' for Inactive)
REMARK    1  A    between atoms: C_9  and  N_10
REMARK    2  A    between atoms: N_10  and  C_11
REMARK    3  A    between atoms: N_10  and  C_20
REMARK    4  A    between atoms: C_11  and  C_12
REMARK    5  A    between atoms: C_12  and  C_13
REMARK    6  A    between atoms: C_20  and  C_21
REMARK                            x       y       z     vdW  Elec       q    Type
REMARK                         _______ _______ _______ _____ _____    ______ ____
ROOT
ATOM      1  N   UNL     1      -1.294  49.349  65.545  0.00  0.00    +0.000 NA
ENDROOT
BRANCH   1  10
ATOM      2  N   UNL     1      -2.118  54.601  59.341  0.00  0.00    +0.000 N 
ATOM      3  C   UNL     1      -1.517  54.233  60.469  0.00  0.00    +0.000 A 
ATOM      4  N   UNL     1      -0.428  54.798  60.977  0.00  0.00    +0.000 NA
ATOM      5  N   UNL     1      -0.272  54.080  62.098  0.00  0.00    +0.000 N 
ATOM      6  C   UNL     1      -1.242  53.121  62.233  0.00  0.00    +0.000 A 
ATOM      7  N   UNL     1      -1.314  52.283  63.303  0.00  0.00    +0.000 N 
ATOM      8  C   UNL     1      -0.150  51.922  64.102  0.00  0.00    +0.000 C 
ATOM      9  C   UNL     1       0.241  50.471  63.839  0.00  0.00    +0.000 C 
ATOM     10  C   UNL     1      -0.931  49.484  64.098  0.00  0.00    +0.000 C 
ATOM     11  C   UNL     1      -2.064  49.953  63.153  0.00  0.00    +0.000 C 
ATOM     12  C   UNL     1      -2.474  51.394  63.435  0.00  0.00    +0.000 C 
ATOM     13  N   UNL     1      -2.060  53.231  61.210  0.00  0.00    +0.000 NA
ATOM     14  H   UNL     1      -1.899  55.527  59.001  0.00  0.00    +0.000 HD
ATOM     15  H   UNL     1      -3.088  54.334  59.244  0.00  0.00    +0.000 HD
ATOM     16  H   UNL     1       0.477  54.312  62.734  0.00  0.00    +0.000 HD
ENDBRANCH   1  10
BRANCH   1  17
ATOM     17  C   UNL     1      -1.864  48.016  65.876  0.00  0.00    +0.000 C 
BRANCH  17  18
ATOM     18  C   UNL     1      -3.350  48.022  66.302  0.00  0.00    +0.000 C 
BRANCH  18  19
ATOM     19  C   UNL     1      -3.660  46.992  67.368  0.00  0.00    +0.000 A 
ATOM     20  C   UNL     1      -2.700  46.657  68.336  0.00  0.00    +0.000 A 
ATOM     21  C   UNL     1      -2.981  45.697  69.311  0.00  0.00    +0.000 A 
ATOM     22  C   UNL     1      -4.220  45.060  69.315  0.00  0.00    +0.000 A 
ATOM     23 CL   UNL     1      -4.558  43.855  70.497  0.00  0.00    +0.000 Cl
ATOM     24  C   UNL     1      -5.184  45.388  68.366  0.00  0.00    +0.000 A 
ATOM     25  C   UNL     1      -4.906  46.352  67.395  0.00  0.00    +0.000 A 
ENDBRANCH  18  19
ENDBRANCH  17  18
ENDBRANCH   1  17
BRANCH   1  26
ATOM     26  C   UNL     1      -0.207  49.740  66.495  0.00  0.00    +0.000 C 
BRANCH  26  27
ATOM     27  C   UNL     1      -0.446  49.503  67.988  0.00  0.00    +0.000 A 
ATOM     28  C   UNL     1      -1.511  50.190  68.614  0.00  0.00    +0.000 A 
ATOM     29  C   UNL     1      -1.727  50.129  69.983  0.00  0.00    +0.000 A 
ATOM     30  C   UNL     1      -0.902  49.346  70.767  0.00  0.00    +0.000 A 
ATOM     31  C   UNL     1       0.116  48.583  70.186  0.00  0.00    +0.000 A 
ATOM     32  C   UNL     1       0.901  47.767  71.023  0.00  0.00    +0.000 A 
ATOM     33  C   UNL     1       1.906  46.962  70.500  0.00  0.00    +0.000 A 
ATOM     34  C   UNL     1       2.123  46.945  69.129  0.00  0.00    +0.000 A 
ATOM     35  C   UNL     1       1.348  47.749  68.289  0.00  0.00    +0.000 A 
ATOM     36  C   UNL     1       0.348  48.621  68.785  0.00  0.00    +0.000 A 
ENDBRANCH  26  27
ENDBRANCH   1  26
TORSDOF 6
ENDMDL
MODEL 4
REMARK VINA RESULT:     -10.6      2.610      6.736
REMARK  Name = CHEMBL4084573-3.4
REMARK  6 active torsions:
REMARK  status: ('A' for Active; 'I' for Inactive)
REMARK    1  A    between atoms: C_9  and  N_10
REMARK    2  A    between atoms: N_10  and  C_11
REMARK    3  A    between atoms: N_10  and  C_20
REMARK    4  A    between atoms: C_11  and  C_12
REMARK    5  A    between atoms: C_12  and  C_13
REMARK    6  A    between atoms: C_20  and  C_21
REMARK                            x       y       z     vdW  Elec       q    Type
REMARK                         _______ _______ _______ _____ _____    ______ ____
ROOT
ATOM      1  N   UNL     1      -1.280  47.867  68.158  0.00  0.00    +0.000 NA
ENDROOT
BRANCH   1  10
ATOM      2  N   UNL     1       5.540  45.866  72.187  0.00  0.00    +0.000 N 
ATOM      3  C   UNL     1       4.356  46.470  72.152  0.00  0.00    +0.000 A 
ATOM      4  N   UNL     1       3.733  46.997  73.200  0.00  0.00    +0.000 NA
ATOM      5  N   UNL     1       2.629  47.484  72.618  0.00  0.00    +0.000 N 
ATOM      6  C   UNL     1       2.611  47.243  71.267  0.00  0.00    +0.000 A 
ATOM      7  N   UNL     1       1.607  47.665  70.451  0.00  0.00    +0.000 N 
ATOM      8  C   UNL     1       0.250  47.902  70.927  0.00  0.00    +0.000 C 
ATOM      9  C   UNL     1      -0.688  46.817  70.410  0.00  0.00    +0.000 C 
ATOM     10  C   UNL     1      -0.662  46.697  68.861  0.00  0.00    +0.000 C 
ATOM     11  C   UNL     1       0.815  46.394  68.509  0.00  0.00    +0.000 C 
ATOM     12  C   UNL     1       1.749  47.494  69.001  0.00  0.00    +0.000 C 
ATOM     13  N   UNL     1       3.726  46.620  70.957  0.00  0.00    +0.000 NA
ATOM     14  H   UNL     1       6.116  46.060  72.995  0.00  0.00    +0.000 HD
ATOM     15  H   UNL     1       6.043  45.818  71.312  0.00  0.00    +0.000 HD
ATOM     16  H   UNL     1       1.958  47.992  73.175  0.00  0.00    +0.000 HD
ENDBRANCH   1  10
BRANCH   1  17
ATOM     17  C   UNL     1      -1.139  47.793  66.679  0.00  0.00    +0.000 C 
BRANCH  17  18
ATOM     18  C   UNL     1      -0.571  49.064  66.007  0.00  0.00    +0.000 C 
BRANCH  18  19
ATOM     19  C   UNL     1       0.568  48.766  65.055  0.00  0.00    +0.000 A 
ATOM     20  C   UNL     1       1.202  47.513  65.072  0.00  0.00    +0.000 A 
ATOM     21  C   UNL     1       2.262  47.243  64.204  0.00  0.00    +0.000 A 
ATOM     22  C   UNL     1       2.700  48.228  63.322  0.00  0.00    +0.000 A 
ATOM     23 CL   UNL     1       4.025  47.908  62.271  0.00  0.00    +0.000 Cl
ATOM     24  C   UNL     1       2.076  49.472  63.289  0.00  0.00    +0.000 A 
ATOM     25  C   UNL     1       1.011  49.741  64.153  0.00  0.00    +0.000 A 
ENDBRANCH  18  19
ENDBRANCH  17  18
ENDBRANCH   1  17
BRANCH   1  26
ATOM     26  C   UNL     1      -2.687  48.162  68.568  0.00  0.00    +0.000 C 
BRANCH  26  27
ATOM     27  C   UNL     1      -3.809  47.379  67.883  0.00  0.00    +0.000 A 
ATOM     28  C   UNL     1      -4.256  47.818  66.615  0.00  0.00    +0.000 A 
ATOM     29  C   UNL     1      -5.345  47.244  65.976  0.00  0.00    +0.000 A 
ATOM     30  C   UNL     1      -6.001  46.184  66.570  0.00  0.00    +0.000 A 
ATOM     31  C   UNL     1      -5.549  45.659  67.785  0.00  0.00    +0.000 A 
ATOM     32  C   UNL     1      -6.225  44.550  68.328  0.00  0.00    +0.000 A 
ATOM     33  C   UNL     1      -5.802  43.965  69.515  0.00  0.00    +0.000 A 
ATOM     34  C   UNL     1      -4.683  44.468  70.164  0.00  0.00    +0.000 A 
ATOM     35  C   UNL     1      -4.003  45.567  69.632  0.00  0.00    +0.000 A 
ATOM     36  C   UNL     1      -4.429  46.224  68.452  0.00  0.00    +0.000 A 
ENDBRANCH  26  27
ENDBRANCH   1  26
TORSDOF 6
ENDMDL
MODEL 5
REMARK VINA RESULT:     -10.6      4.605      8.747
REMARK  Name = CHEMBL4084573-3.4
REMARK  6 active torsions:
REMARK  status: ('A' for Active; 'I' for Inactive)
REMARK    1  A    between atoms: C_9  and  N_10
REMARK    2  A    between atoms: N_10  and  C_11
REMARK    3  A    between atoms: N_10  and  C_20
REMARK    4  A    between atoms: C_11  and  C_12
REMARK    5  A    between atoms: C_12  and  C_13
REMARK    6  A    between atoms: C_20  and  C_21
REMARK                            x       y       z     vdW  Elec       q    Type
REMARK                         _______ _______ _______ _____ _____    ______ ____
ROOT
ATOM      1  N   UNL     1      -1.065  49.216  65.554  0.00  0.00    +0.000 NA
ENDROOT
BRANCH   1  10
ATOM      2  N   UNL     1      -9.024  48.889  63.738  0.00  0.00    +0.000 N 
ATOM      3  C   UNL     1      -8.043  49.244  64.562  0.00  0.00    +0.000 A 
ATOM      4  N   UNL     1      -8.184  50.011  65.637  0.00  0.00    +0.000 NA
ATOM      5  N   UNL     1      -6.927  50.027  66.101  0.00  0.00    +0.000 N 
ATOM      6  C   UNL     1      -6.078  49.291  65.314  0.00  0.00    +0.000 A 
ATOM      7  N   UNL     1      -4.757  49.130  65.594  0.00  0.00    +0.000 N 
ATOM      8  C   UNL     1      -3.992  50.098  66.370  0.00  0.00    +0.000 C 
ATOM      9  C   UNL     1      -3.023  50.854  65.466  0.00  0.00    +0.000 C 
ATOM     10  C   UNL     1      -2.075  49.902  64.685  0.00  0.00    +0.000 C 
ATOM     11  C   UNL     1      -3.015  48.978  63.874  0.00  0.00    +0.000 C 
ATOM     12  C   UNL     1      -3.963  48.202  64.781  0.00  0.00    +0.000 C 
ATOM     13  N   UNL     1      -6.791  48.762  64.343  0.00  0.00    +0.000 NA
ATOM     14  H   UNL     1      -9.964  48.980  64.099  0.00  0.00    +0.000 HD
ATOM     15  H   UNL     1      -8.863  48.061  63.182  0.00  0.00    +0.000 HD
ATOM     16  H   UNL     1      -6.722  50.516  66.960  0.00  0.00    +0.000 HD
ENDBRANCH   1  10
BRANCH   1  17
ATOM     17  C   UNL     1      -0.049  48.462  64.774  0.00  0.00    +0.000 C 
BRANCH  17  18
ATOM     18  C   UNL     1       1.284  49.208  64.531  0.00  0.00    +0.000 C 
BRANCH  18  19
ATOM     19  C   UNL     1       2.299  48.369  63.785  0.00  0.00    +0.000 A 
ATOM     20  C   UNL     1       3.075  48.933  62.760  0.00  0.00    +0.000 A 
ATOM     21  C   UNL     1       4.002  48.154  62.062  0.00  0.00    +0.000 A 
ATOM     22  C   UNL     1       4.149  46.806  62.380  0.00  0.00    +0.000 A 
ATOM     23 CL   UNL     1       5.269  45.837  61.502  0.00  0.00    +0.000 Cl
ATOM     24  C   UNL     1       3.392  46.235  63.399  0.00  0.00    +0.000 A 
ATOM     25  C   UNL     1       2.470  47.015  64.101  0.00  0.00    +0.000 A 
ENDBRANCH  18  19
ENDBRANCH  17  18
ENDBRANCH   1  17
BRANCH   1  26
ATOM     26  C   UNL     1      -0.434  50.098  66.583  0.00  0.00    +0.000 C 
BRANCH  26  27
ATOM     27  C   UNL     1      -0.549  49.676  68.050  0.00  0.00    +0.000 A 
ATOM     28  C   UNL     1      -1.561  50.268  68.840  0.00  0.00    +0.000 A 
ATOM     29  C   UNL     1      -1.663  50.037  70.204  0.00  0.00    +0.000 A 
ATOM     30  C   UNL     1      -0.776  49.173  70.816  0.00  0.00    +0.000 A 
ATOM     31  C   UNL     1       0.192  48.499  70.065  0.00  0.00    +0.000 A 
ATOM     32  C   UNL     1       1.045  47.596  70.728  0.00  0.00    +0.000 A 
ATOM     33  C   UNL     1       2.005  46.874  70.030  0.00  0.00    +0.000 A 
ATOM     34  C   UNL     1       2.109  47.028  68.655  0.00  0.00    +0.000 A 
ATOM     35  C   UNL     1       1.266  47.920  67.986  0.00  0.00    +0.000 A 
ATOM     36  C   UNL     1       0.309  48.712  68.665  0.00  0.00    +0.000 A 
ENDBRANCH  26  27
ENDBRANCH   1  26
TORSDOF 6
ENDMDL
MODEL 6
REMARK VINA RESULT:     -10.6      3.587      7.715
REMARK  Name = CHEMBL4084573-3.4
REMARK  6 active torsions:
REMARK  status: ('A' for Active; 'I' for Inactive)
REMARK    1  A    between atoms: C_9  and  N_10
REMARK    2  A    between atoms: N_10  and  C_11
REMARK    3  A    between atoms: N_10  and  C_20
REMARK    4  A    between atoms: C_11  and  C_12
REMARK    5  A    between atoms: C_12  and  C_13
REMARK    6  A    between atoms: C_20  and  C_21
REMARK                            x       y       z     vdW  Elec       q    Type
REMARK                         _______ _______ _______ _____ _____    ______ ____
ROOT
ATOM      1  N   UNL     1      -2.691  49.124  66.989  0.00  0.00    +0.000 NA
ENDROOT
BRANCH   1  10
ATOM      2  N   UNL     1       2.944  50.857  61.333  0.00  0.00    +0.000 N 
ATOM      3  C   UNL     1       2.427  50.019  62.227  0.00  0.00    +0.000 A 
ATOM      4  N   UNL     1       2.785  48.750  62.386  0.00  0.00    +0.000 NA
ATOM      5  N   UNL     1       1.993  48.392  63.406  0.00  0.00    +0.000 N 
ATOM      6  C   UNL     1       1.194  49.425  63.824  0.00  0.00    +0.000 A 
ATOM      7  N   UNL     1       0.324  49.316  64.864  0.00  0.00    +0.000 N 
ATOM      8  C   UNL     1      -0.260  48.045  65.275  0.00  0.00    +0.000 C 
ATOM      9  C   UNL     1      -1.738  47.998  64.904  0.00  0.00    +0.000 C 
ATOM     10  C   UNL     1      -2.539  49.189  65.500  0.00  0.00    +0.000 C 
ATOM     11  C   UNL     1      -1.847  50.455  64.941  0.00  0.00    +0.000 C 
ATOM     12  C   UNL     1      -0.376  50.516  65.337  0.00  0.00    +0.000 C 
ATOM     13  N   UNL     1       1.487  50.478  63.094  0.00  0.00    +0.000 NA
ATOM     14  H   UNL     1       3.841  50.596  60.945  0.00  0.00    +0.000 HD
ATOM     15  H   UNL     1       2.841  51.842  61.532  0.00  0.00    +0.000 HD
ATOM     16  H   UNL     1       2.069  47.460  63.787  0.00  0.00    +0.000 HD
ENDBRANCH   1  10
BRANCH   1  17
ATOM     17  C   UNL     1      -2.491  50.441  67.649  0.00  0.00    +0.000 C 
BRANCH  17  18
ATOM     18  C   UNL     1      -2.225  50.384  69.171  0.00  0.00    +0.000 C 
BRANCH  18  19
ATOM     19  C   UNL     1      -1.028  49.527  69.527  0.00  0.00    +0.000 A 
ATOM     20  C   UNL     1      -0.125  49.117  68.533  0.00  0.00    +0.000 A 
ATOM     21  C   UNL     1       0.971  48.315  68.859  0.00  0.00    +0.000 A 
ATOM     22  C   UNL     1       1.163  47.911  70.179  0.00  0.00    +0.000 A 
ATOM     23 CL   UNL     1       2.496  46.899  70.579  0.00  0.00    +0.000 Cl
ATOM     24  C   UNL     1       0.280  48.318  71.176  0.00  0.00    +0.000 A 
ATOM     25  C   UNL     1      -0.813  49.125  70.851  0.00  0.00    +0.000 A 
ENDBRANCH  18  19
ENDBRANCH  17  18
ENDBRANCH   1  17
BRANCH   1  26
ATOM     26  C   UNL     1      -3.943  48.454  67.455  0.00  0.00    +0.000 C 
BRANCH  26  27
ATOM     27  C   UNL     1      -3.802  47.159  68.259  0.00  0.00    +0.000 A 
ATOM     28  C   UNL     1      -2.506  46.751  68.650  0.00  0.00    +0.000 A 
ATOM     29  C   UNL     1      -2.271  45.534  69.275  0.00  0.00    +0.000 A 
ATOM     30  C   UNL     1      -3.335  44.701  69.562  0.00  0.00    +0.000 A 
ATOM     31  C   UNL     1      -4.645  45.094  69.270  0.00  0.00    +0.000 A 
ATOM     32  C   UNL     1      -5.698  44.229  69.622  0.00  0.00    +0.000 A 
ATOM     33  C   UNL     1      -7.022  44.579  69.386  0.00  0.00    +0.000 A 
ATOM     34  C   UNL     1      -7.311  45.811  68.815  0.00  0.00    +0.000 A 
ATOM     35  C   UNL     1      -6.274  46.679  68.463  0.00  0.00    +0.000 A 
ATOM     36  C   UNL     1      -4.910  46.340  68.640  0.00  0.00    +0.000 A 
ENDBRANCH  26  27
ENDBRANCH   1  26
TORSDOF 6
ENDMDL
MODEL 7
REMARK VINA RESULT:     -10.5      3.734      7.715
REMARK  Name = CHEMBL4084573-3.4
REMARK  6 active torsions:
REMARK  status: ('A' for Active; 'I' for Inactive)
REMARK    1  A    between atoms: C_9  and  N_10
REMARK    2  A    between atoms: N_10  and  C_11
REMARK    3  A    between atoms: N_10  and  C_20
REMARK    4  A    between atoms: C_11  and  C_12
REMARK    5  A    between atoms: C_12  and  C_13
REMARK    6  A    between atoms: C_20  and  C_21
REMARK                            x       y       z     vdW  Elec       q    Type
REMARK                         _______ _______ _______ _____ _____    ______ ____
ROOT
ATOM      1  N   UNL     1      -3.094  49.531  67.450  0.00  0.00    +0.000 NA
ENDROOT
BRANCH   1  10
ATOM      2  N   UNL     1      -8.463  50.629  61.390  0.00  0.00    +0.000 N 
ATOM      3  C   UNL     1      -7.456  51.078  62.135  0.00  0.00    +0.000 A 
ATOM      4  N   UNL     1      -6.766  52.188  61.903  0.00  0.00    +0.000 NA
ATOM      5  N   UNL     1      -5.917  52.178  62.940  0.00  0.00    +0.000 N 
ATOM      6  C   UNL     1      -6.108  51.087  63.750  0.00  0.00    +0.000 A 
ATOM      7  N   UNL     1      -5.387  50.868  64.883  0.00  0.00    +0.000 N 
ATOM      8  C   UNL     1      -4.042  51.396  65.077  0.00  0.00    +0.000 C 
ATOM      9  C   UNL     1      -3.018  50.268  65.006  0.00  0.00    +0.000 C 
ATOM     10  C   UNL     1      -3.314  49.132  66.023  0.00  0.00    +0.000 C 
ATOM     11  C   UNL     1      -4.737  48.637  65.666  0.00  0.00    +0.000 C 
ATOM     12  C   UNL     1      -5.765  49.758  65.765  0.00  0.00    +0.000 C 
ATOM     13  N   UNL     1      -7.111  50.394  63.257  0.00  0.00    +0.000 NA
ATOM     14  H   UNL     1      -8.901  51.305  60.779  0.00  0.00    +0.000 HD
ATOM     15  H   UNL     1      -9.102  49.990  61.841  0.00  0.00    +0.000 HD
ATOM     16  H   UNL     1      -5.271  52.944  63.059  0.00  0.00    +0.000 HD
ENDBRANCH   1  10
BRANCH   1  17
ATOM     17  C   UNL     1      -3.368  48.428  68.408  0.00  0.00    +0.000 C 
BRANCH  17  18
ATOM     18  C   UNL     1      -2.986  47.013  67.913  0.00  0.00    +0.000 C 
BRANCH  18  19
ATOM     19  C   UNL     1      -3.716  45.914  68.654  0.00  0.00    +0.000 A 
ATOM     20  C   UNL     1      -5.044  45.594  68.328  0.00  0.00    +0.000 A 
ATOM     21  C   UNL     1      -5.722  44.589  69.021  0.00  0.00    +0.000 A 
ATOM     22  C   UNL     1      -5.079  43.906  70.051  0.00  0.00    +0.000 A 
ATOM     23 CL   UNL     1      -5.921  42.688  70.927  0.00  0.00    +0.000 Cl
ATOM     24  C   UNL     1      -3.760  44.207  70.380  0.00  0.00    +0.000 A 
ATOM     25  C   UNL     1      -3.079  45.208  69.682  0.00  0.00    +0.000 A 
ENDBRANCH  18  19
ENDBRANCH  17  18
ENDBRANCH   1  17
BRANCH   1  26
ATOM     26  C   UNL     1      -1.775  50.182  67.715  0.00  0.00    +0.000 C 
BRANCH  26  27
ATOM     27  C   UNL     1      -0.522  49.307  67.646  0.00  0.00    +0.000 A 
ATOM     28  C   UNL     1       0.052  49.056  66.378  0.00  0.00    +0.000 A 
ATOM     29  C   UNL     1       1.114  48.180  66.208  0.00  0.00    +0.000 A 
ATOM     30  C   UNL     1       1.661  47.553  67.310  0.00  0.00    +0.000 A 
ATOM     31  C   UNL     1       1.184  47.828  68.596  0.00  0.00    +0.000 A 
ATOM     32  C   UNL     1       1.804  47.196  69.690  0.00  0.00    +0.000 A 
ATOM     33  C   UNL     1       1.394  47.456  70.992  0.00  0.00    +0.000 A 
ATOM     34  C   UNL     1       0.373  48.368  71.218  0.00  0.00    +0.000 A 
ATOM     35  C   UNL     1      -0.248  49.003  70.139  0.00  0.00    +0.000 A 
ATOM     36  C   UNL     1       0.104  48.730  68.795  0.00  0.00    +0.000 A 
ENDBRANCH  26  27
ENDBRANCH   1  26
TORSDOF 6
ENDMDL
MODEL 8
REMARK VINA RESULT:     -10.5      4.199      7.692
REMARK  Name = CHEMBL4084573-3.4
REMARK  6 active torsions:
REMARK  status: ('A' for Active; 'I' for Inactive)
REMARK    1  A    between atoms: C_9  and  N_10
REMARK    2  A    between atoms: N_10  and  C_11
REMARK    3  A    between atoms: N_10  and  C_20
REMARK    4  A    between atoms: C_11  and  C_12
REMARK    5  A    between atoms: C_12  and  C_13
REMARK    6  A    between atoms: C_20  and  C_21
REMARK                            x       y       z     vdW  Elec       q    Type
REMARK                         _______ _______ _______ _____ _____    ______ ____
ROOT
ATOM      1  N   UNL     1      -0.915  49.448  65.537  0.00  0.00    +0.000 NA
ENDROOT
BRANCH   1  10
ATOM      2  N   UNL     1      -8.124  50.797  61.937  0.00  0.00    +0.000 N 
ATOM      3  C   UNL     1      -6.923  51.228  62.311  0.00  0.00    +0.000 A 
ATOM      4  N   UNL     1      -6.378  52.386  61.955  0.00  0.00    +0.000 NA
ATOM      5  N   UNL     1      -5.212  52.329  62.613  0.00  0.00    +0.000 N 
ATOM      6  C   UNL     1      -5.083  51.166  63.329  0.00  0.00    +0.000 A 
ATOM      7  N   UNL     1      -3.998  50.886  64.102  0.00  0.00    +0.000 N 
ATOM      8  C   UNL     1      -2.682  51.459  63.851  0.00  0.00    +0.000 C 
ATOM      9  C   UNL     1      -1.736  50.392  63.310  0.00  0.00    +0.000 C 
ATOM     10  C   UNL     1      -1.629  49.161  64.252  0.00  0.00    +0.000 C 
ATOM     11  C   UNL     1      -3.078  48.631  64.383  0.00  0.00    +0.000 C 
ATOM     12  C   UNL     1      -4.017  49.689  64.950  0.00  0.00    +0.000 C 
ATOM     13  N   UNL     1      -6.186  50.469  63.164  0.00  0.00    +0.000 NA
ATOM     14  H   UNL     1      -8.763  51.501  61.591  0.00  0.00    +0.000 HD
ATOM     15  H   UNL     1      -8.549  50.093  62.523  0.00  0.00    +0.000 HD
ATOM     16  H   UNL     1      -4.578  53.112  62.565  0.00  0.00    +0.000 HD
ENDBRANCH   1  10
BRANCH   1  17
ATOM     17  C   UNL     1      -1.039  48.346  66.527  0.00  0.00    +0.000 C 
BRANCH  17  18
ATOM     18  C   UNL     1      -1.183  48.795  68.000  0.00  0.00    +0.000 C 
BRANCH  18  19
ATOM     19  C   UNL     1      -0.062  48.285  68.881  0.00  0.00    +0.000 A 
ATOM     20  C   UNL     1       0.988  47.531  68.334  0.00  0.00    +0.000 A 
ATOM     21  C   UNL     1       2.014  47.049  69.151  0.00  0.00    +0.000 A 
ATOM     22  C   UNL     1       1.989  47.311  70.519  0.00  0.00    +0.000 A 
ATOM     23 CL   UNL     1       3.237  46.694  71.531  0.00  0.00    +0.000 Cl
ATOM     24  C   UNL     1       0.958  48.064  71.073  0.00  0.00    +0.000 A 
ATOM     25  C   UNL     1      -0.065  48.551  70.256  0.00  0.00    +0.000 A 
ENDBRANCH  18  19
ENDBRANCH  17  18
ENDBRANCH   1  17
BRANCH   1  26
ATOM     26  C   UNL     1       0.504  49.889  65.371  0.00  0.00    +0.000 C 
BRANCH  26  27
ATOM     27  C   UNL     1       1.405  49.062  64.451  0.00  0.00    +0.000 A 
ATOM     28  C   UNL     1       1.688  47.725  64.815  0.00  0.00    +0.000 A 
ATOM     29  C   UNL     1       2.587  46.941  64.107  0.00  0.00    +0.000 A 
ATOM     30  C   UNL     1       3.206  47.460  62.986  0.00  0.00    +0.000 A 
ATOM     31  C   UNL     1       2.899  48.748  62.536  0.00  0.00    +0.000 A 
ATOM     32  C   UNL     1       3.523  49.215  61.364  0.00  0.00    +0.000 A 
ATOM     33  C   UNL     1       3.233  50.473  60.851  0.00  0.00    +0.000 A 
ATOM     34  C   UNL     1       2.298  51.273  61.492  0.00  0.00    +0.000 A 
ATOM     35  C   UNL     1       1.670  50.819  62.655  0.00  0.00    +0.000 A 
ATOM     36  C   UNL     1       1.973  49.565  63.239  0.00  0.00    +0.000 A 
ENDBRANCH  26  27
ENDBRANCH   1  26
TORSDOF 6
ENDMDL
MODEL 9
REMARK VINA RESULT:      -9.9      4.129      8.178
REMARK  Name = CHEMBL4084573-3.4
REMARK  6 active torsions:
REMARK  status: ('A' for Active; 'I' for Inactive)
REMARK    1  A    between atoms: C_9  and  N_10
REMARK    2  A    between atoms: N_10  and  C_11
REMARK    3  A    between atoms: N_10  and  C_20
REMARK    4  A    between atoms: C_11  and  C_12
REMARK    5  A    between atoms: C_12  and  C_13
REMARK    6  A    between atoms: C_20  and  C_21
REMARK                            x       y       z     vdW  Elec       q    Type
REMARK                         _______ _______ _______ _____ _____    ______ ____
ROOT
ATOM      1  N   UNL     1      -2.315  49.473  65.158  0.00  0.00    +0.000 NA
ENDROOT
BRANCH   1  10
ATOM      2  N   UNL     1      -6.889  51.835  58.814  0.00  0.00    +0.000 N 
ATOM      3  C   UNL     1      -6.153  52.134  59.880  0.00  0.00    +0.000 A 
ATOM      4  N   UNL     1      -5.760  53.356  60.222  0.00  0.00    +0.000 NA
ATOM      5  N   UNL     1      -5.091  53.097  61.354  0.00  0.00    +0.000 N 
ATOM      6  C   UNL     1      -5.093  51.760  61.658  0.00  0.00    +0.000 A 
ATOM      7  N   UNL     1      -4.504  51.251  62.774  0.00  0.00    +0.000 N 
ATOM      8  C   UNL     1      -3.389  51.907  63.447  0.00  0.00    +0.000 C 
ATOM      9  C   UNL     1      -2.101  51.123  63.220  0.00  0.00    +0.000 C 
ATOM     10  C   UNL     1      -2.220  49.641  63.672  0.00  0.00    +0.000 C 
ATOM     11  C   UNL     1      -3.395  49.065  62.846  0.00  0.00    +0.000 C 
ATOM     12  C   UNL     1      -4.689  49.831  63.094  0.00  0.00    +0.000 C 
ATOM     13  N   UNL     1      -5.796  51.141  60.735  0.00  0.00    +0.000 NA
ATOM     14  H   UNL     1      -7.404  52.600  58.398  0.00  0.00    +0.000 HD
ATOM     15  H   UNL     1      -7.391  50.958  58.849  0.00  0.00    +0.000 HD
ATOM     16  H   UNL     1      -4.696  53.862  61.881  0.00  0.00    +0.000 HD
ENDBRANCH   1  10
BRANCH   1  17
ATOM     17  C   UNL     1      -2.665  48.085  65.561  0.00  0.00    +0.000 C 
BRANCH  17  18
ATOM     18  C   UNL     1      -4.073  47.913  66.178  0.00  0.00    +0.000 C 
BRANCH  18  19
ATOM     19  C   UNL     1      -4.100  46.906  67.308  0.00  0.00    +0.000 A 
ATOM     20  C   UNL     1      -2.998  46.768  68.166  0.00  0.00    +0.000 A 
ATOM     21  C   UNL     1      -3.018  45.829  69.200  0.00  0.00    +0.000 A 
ATOM     22  C   UNL     1      -4.136  45.016  69.374  0.00  0.00    +0.000 A 
ATOM     23 CL   UNL     1      -4.151  43.838  70.628  0.00  0.00    +0.000 Cl
ATOM     24  C   UNL     1      -5.239  45.148  68.535  0.00  0.00    +0.000 A 
ATOM     25  C   UNL     1      -5.222  46.091  67.504  0.00  0.00    +0.000 A 
ENDBRANCH  18  19
ENDBRANCH  17  18
ENDBRANCH   1  17
BRANCH   1  26
ATOM     26  C   UNL     1      -1.135  49.991  65.916  0.00  0.00    +0.000 C 
BRANCH  26  27
ATOM     27  C   UNL     1      -1.085  49.727  67.423  0.00  0.00    +0.000 A 
ATOM     28  C   UNL     1      -2.029  50.379  68.250  0.00  0.00    +0.000 A 
ATOM     29  C   UNL     1      -1.983  50.294  69.634  0.00  0.00    +0.000 A 
ATOM     30  C   UNL     1      -1.008  49.521  70.235  0.00  0.00    +0.000 A 
ATOM     31  C   UNL     1      -0.101  48.791  69.461  0.00  0.00    +0.000 A 
ATOM     32  C   UNL     1       0.845  47.984  70.121  0.00  0.00    +0.000 A 
ATOM     33  C   UNL     1       1.751  47.212  69.404  0.00  0.00    +0.000 A 
ATOM     34  C   UNL     1       1.708  47.219  68.017  0.00  0.00    +0.000 A 
ATOM     35  C   UNL     1       0.771  48.015  67.352  0.00  0.00    +0.000 A 
ATOM     36  C   UNL     1      -0.137  48.855  68.042  0.00  0.00    +0.000 A 
ENDBRANCH  26  27
ENDBRANCH   1  26
TORSDOF 6
ENDMDL
