MODEL 1
REMARK VINA RESULT:      -8.0      0.000      0.000
REMARK  Name = CHEMBL1215473-5450
REMARK  4 active torsions:
REMARK  status: ('A' for Active; 'I' for Inactive)
REMARK    1  A    between atoms: N_9  and  C_10
REMARK    2  A    between atoms: C_10  and  C_11
REMARK    3  A    between atoms: C_11  and  O_12
REMARK    4  A    between atoms: O_12  and  C_13
REMARK                            x       y       z     vdW  Elec       q    Type
REMARK                         _______ _______ _______ _____ _____    ______ ____
ROOT
ATOM      1  N   UNL     1      -4.696  43.578  70.458  0.00  0.00    +0.000 N 
ATOM      2  C   UNL     1      -3.507  44.170  70.476  0.00  0.00    +0.000 A 
ATOM      3  N   UNL     1      -2.510  43.867  71.299  0.00  0.00    +0.000 NA
ATOM      4  N   UNL     1      -1.591  44.771  70.927  0.00  0.00    +0.000 N 
ATOM      5  C   UNL     1      -2.034  45.554  69.895  0.00  0.00    +0.000 A 
ATOM      6  N   UNL     1      -1.322  46.584  69.378  0.00  0.00    +0.000 N 
ATOM      7  C   UNL     1       0.119  46.771  69.548  0.00  0.00    +0.000 C 
ATOM      8  C   UNL     1       0.438  48.266  69.810  0.00  0.00    +0.000 C 
ATOM      9  N   UNL     1      -0.143  49.215  68.828  0.00  0.00    +0.000 NA
ATOM     10  C   UNL     1      -1.602  48.937  68.737  0.00  0.00    +0.000 C 
ATOM     11  C   UNL     1      -1.963  47.471  68.402  0.00  0.00    +0.000 C 
ATOM     12  N   UNL     1      -3.254  45.170  69.593  0.00  0.00    +0.000 NA
ATOM     13  H   UNL     1      -4.788  42.696  70.939  0.00  0.00    +0.000 HD
ATOM     14  H   UNL     1      -5.263  43.689  69.629  0.00  0.00    +0.000 HD
ATOM     15  H   UNL     1      -0.723  44.833  71.439  0.00  0.00    +0.000 HD
ENDROOT
BRANCH   9  16
ATOM     16  C   UNL     1       0.549  49.114  67.528  0.00  0.00    +0.000 C 
BRANCH  16  17
ATOM     17  C   UNL     1      -0.231  49.759  66.376  0.00  0.00    +0.000 C 
BRANCH  17  18
ATOM     18  O   UNL     1      -0.324  48.842  65.284  0.00  0.00    +0.000 OA
BRANCH  18  19
ATOM     19  C   UNL     1       0.776  48.796  64.466  0.00  0.00    +0.000 A 
ATOM     20  C   UNL     1       1.244  49.844  63.669  0.00  0.00    +0.000 A 
ATOM     21  C   UNL     1       2.395  49.684  62.892  0.00  0.00    +0.000 A 
ATOM     22  C   UNL     1       3.079  48.470  62.913  0.00  0.00    +0.000 A 
ATOM     23 BR   UNL     1       4.649  48.265  61.883  0.00  0.00    +0.000 Br
ATOM     24  C   UNL     1       2.614  47.413  63.691  0.00  0.00    +0.000 A 
ATOM     25  C   UNL     1       1.462  47.577  64.465  0.00  0.00    +0.000 A 
ENDBRANCH  18  19
ENDBRANCH  17  18
ENDBRANCH  16  17
ENDBRANCH   9  16
TORSDOF 4
ENDMDL
MODEL 2
REMARK VINA RESULT:      -7.9      0.235      1.051
REMARK  Name = CHEMBL1215473-5450
REMARK  4 active torsions:
REMARK  status: ('A' for Active; 'I' for Inactive)
REMARK    1  A    between atoms: N_9  and  C_10
REMARK    2  A    between atoms: C_10  and  C_11
REMARK    3  A    between atoms: C_11  and  O_12
REMARK    4  A    between atoms: O_12  and  C_13
REMARK                            x       y       z     vdW  Elec       q    Type
REMARK                         _______ _______ _______ _____ _____    ______ ____
ROOT
ATOM      1  N   UNL     1      -4.619  43.610  70.831  0.00  0.00    +0.000 N 
ATOM      2  C   UNL     1      -3.420  44.177  70.757  0.00  0.00    +0.000 A 
ATOM      3  N   UNL     1      -2.374  43.863  71.511  0.00  0.00    +0.000 NA
ATOM      4  N   UNL     1      -1.465  44.742  71.062  0.00  0.00    +0.000 N 
ATOM      5  C   UNL     1      -1.964  45.522  70.053  0.00  0.00    +0.000 A 
ATOM      6  N   UNL     1      -1.270  46.530  69.473  0.00  0.00    +0.000 N 
ATOM      7  C   UNL     1       0.183  46.689  69.539  0.00  0.00    +0.000 C 
ATOM      8  C   UNL     1       0.550  48.179  69.757  0.00  0.00    +0.000 C 
ATOM      9  N   UNL     1      -0.080  49.128  68.805  0.00  0.00    +0.000 NA
ATOM     10  C   UNL     1      -1.547  48.880  68.821  0.00  0.00    +0.000 C 
ATOM     11  C   UNL     1      -1.961  47.418  68.533  0.00  0.00    +0.000 C 
ATOM     12  N   UNL     1      -3.210  45.160  69.844  0.00  0.00    +0.000 NA
ATOM     13  H   UNL     1      -4.694  42.736  71.330  0.00  0.00    +0.000 HD
ATOM     14  H   UNL     1      -5.242  43.723  70.043  0.00  0.00    +0.000 HD
ATOM     15  H   UNL     1      -0.562  44.792  71.511  0.00  0.00    +0.000 HD
ENDROOT
BRANCH   9  16
ATOM     16  C   UNL     1       0.515  48.996  67.461  0.00  0.00    +0.000 C 
BRANCH  16  17
ATOM     17  C   UNL     1      -0.402  49.501  66.340  0.00  0.00    +0.000 C 
BRANCH  17  18
ATOM     18  O   UNL     1      -0.412  48.560  65.265  0.00  0.00    +0.000 OA
BRANCH  18  19
ATOM     19  C   UNL     1       0.746  48.497  64.534  0.00  0.00    +0.000 A 
ATOM     20  C   UNL     1       1.598  47.392  64.449  0.00  0.00    +0.000 A 
ATOM     21  C   UNL     1       2.742  47.440  63.647  0.00  0.00    +0.000 A 
ATOM     22  C   UNL     1       3.036  48.598  62.931  0.00  0.00    +0.000 A 
ATOM     23 BR   UNL     1       4.569  48.650  61.829  0.00  0.00    +0.000 Br
ATOM     24  C   UNL     1       2.204  49.711  63.019  0.00  0.00    +0.000 A 
ATOM     25  C   UNL     1       1.061  49.660  63.822  0.00  0.00    +0.000 A 
ENDBRANCH  18  19
ENDBRANCH  17  18
ENDBRANCH  16  17
ENDBRANCH   9  16
TORSDOF 4
ENDMDL
MODEL 3
REMARK VINA RESULT:      -7.6      3.163      3.827
REMARK  Name = CHEMBL1215473-5450
REMARK  4 active torsions:
REMARK  status: ('A' for Active; 'I' for Inactive)
REMARK    1  A    between atoms: N_9  and  C_10
REMARK    2  A    between atoms: C_10  and  C_11
REMARK    3  A    between atoms: C_11  and  O_12
REMARK    4  A    between atoms: O_12  and  C_13
REMARK                            x       y       z     vdW  Elec       q    Type
REMARK                         _______ _______ _______ _____ _____    ______ ____
ROOT
ATOM      1  N   UNL     1       2.676  46.349  70.553  0.00  0.00    +0.000 N 
ATOM      2  C   UNL     1       1.727  47.253  70.338  0.00  0.00    +0.000 A 
ATOM      3  N   UNL     1       1.021  47.865  71.281  0.00  0.00    +0.000 NA
ATOM      4  N   UNL     1       0.200  48.619  70.535  0.00  0.00    +0.000 N 
ATOM      5  C   UNL     1       0.448  48.471  69.196  0.00  0.00    +0.000 A 
ATOM      6  N   UNL     1      -0.284  49.073  68.229  0.00  0.00    +0.000 N 
ATOM      7  C   UNL     1      -1.154  50.230  68.438  0.00  0.00    +0.000 C 
ATOM      8  C   UNL     1      -2.475  50.058  67.645  0.00  0.00    +0.000 C 
ATOM      9  N   UNL     1      -2.308  49.729  66.208  0.00  0.00    +0.000 NA
ATOM     10  C   UNL     1      -1.414  48.545  66.114  0.00  0.00    +0.000 C 
ATOM     11  C   UNL     1      -0.051  48.703  66.828  0.00  0.00    +0.000 C 
ATOM     12  N   UNL     1       1.430  47.608  69.062  0.00  0.00    +0.000 NA
ATOM     13  H   UNL     1       3.050  46.274  71.488  0.00  0.00    +0.000 HD
ATOM     14  H   UNL     1       3.327  46.163  69.802  0.00  0.00    +0.000 HD
ATOM     15  H   UNL     1      -0.523  49.159  70.987  0.00  0.00    +0.000 HD
ENDROOT
BRANCH   9  16
ATOM     16  C   UNL     1      -1.805  50.897  65.458  0.00  0.00    +0.000 C 
BRANCH  16  17
ATOM     17  C   UNL     1      -1.346  50.550  64.036  0.00  0.00    +0.000 C 
BRANCH  17  18
ATOM     18  O   UNL     1      -0.478  51.574  63.547  0.00  0.00    +0.000 OA
BRANCH  18  19
ATOM     19  C   UNL     1       0.664  51.128  62.933  0.00  0.00    +0.000 A 
ATOM     20  C   UNL     1       1.293  51.734  61.842  0.00  0.00    +0.000 A 
ATOM     21  C   UNL     1       2.472  51.197  61.316  0.00  0.00    +0.000 A 
ATOM     22  C   UNL     1       3.021  50.048  61.884  0.00  0.00    +0.000 A 
ATOM     23 BR   UNL     1       4.627  49.340  61.187  0.00  0.00    +0.000 Br
ATOM     24  C   UNL     1       2.395  49.427  62.960  0.00  0.00    +0.000 A 
ATOM     25  C   UNL     1       1.216  49.966  63.482  0.00  0.00    +0.000 A 
ENDBRANCH  18  19
ENDBRANCH  17  18
ENDBRANCH  16  17
ENDBRANCH   9  16
TORSDOF 4
ENDMDL
MODEL 4
REMARK VINA RESULT:      -7.3      1.447      1.966
REMARK  Name = CHEMBL1215473-5450
REMARK  4 active torsions:
REMARK  status: ('A' for Active; 'I' for Inactive)
REMARK    1  A    between atoms: N_9  and  C_10
REMARK    2  A    between atoms: C_10  and  C_11
REMARK    3  A    between atoms: C_11  and  O_12
REMARK    4  A    between atoms: O_12  and  C_13
REMARK                            x       y       z     vdW  Elec       q    Type
REMARK                         _______ _______ _______ _____ _____    ______ ____
ROOT
ATOM      1  N   UNL     1      -6.196  43.198  70.971  0.00  0.00    +0.000 N 
ATOM      2  C   UNL     1      -4.995  43.743  71.133  0.00  0.00    +0.000 A 
ATOM      3  N   UNL     1      -4.289  43.726  72.257  0.00  0.00    +0.000 NA
ATOM      4  N   UNL     1      -3.210  44.433  71.889  0.00  0.00    +0.000 N 
ATOM      5  C   UNL     1      -3.277  44.820  70.576  0.00  0.00    +0.000 A 
ATOM      6  N   UNL     1      -2.344  45.598  69.978  0.00  0.00    +0.000 N 
ATOM      7  C   UNL     1      -0.987  45.811  70.480  0.00  0.00    +0.000 C 
ATOM      8  C   UNL     1      -0.584  47.300  70.320  0.00  0.00    +0.000 C 
ATOM      9  N   UNL     1      -0.778  47.862  68.960  0.00  0.00    +0.000 NA
ATOM     10  C   UNL     1      -2.182  47.591  68.553  0.00  0.00    +0.000 C 
ATOM     11  C   UNL     1      -2.604  46.105  68.626  0.00  0.00    +0.000 C 
ATOM     12  N   UNL     1      -4.410  44.373  70.083  0.00  0.00    +0.000 NA
ATOM     13  H   UNL     1      -6.509  42.537  71.667  0.00  0.00    +0.000 HD
ATOM     14  H   UNL     1      -6.511  43.026  70.026  0.00  0.00    +0.000 HD
ATOM     15  H   UNL     1      -2.506  44.655  72.577  0.00  0.00    +0.000 HD
ENDROOT
BRANCH   9  16
ATOM     16  C   UNL     1       0.215  47.309  68.018  0.00  0.00    +0.000 C 
BRANCH  16  17
ATOM     17  C   UNL     1       0.660  48.315  66.949  0.00  0.00    +0.000 C 
BRANCH  17  18
ATOM     18  O   UNL     1       1.197  47.617  65.824  0.00  0.00    +0.000 OA
BRANCH  18  19
ATOM     19  C   UNL     1       1.536  48.405  64.754  0.00  0.00    +0.000 A 
ATOM     20  C   UNL     1       2.550  48.135  63.831  0.00  0.00    +0.000 A 
ATOM     21  C   UNL     1       2.786  49.006  62.763  0.00  0.00    +0.000 A 
ATOM     22  C   UNL     1       2.006  50.152  62.622  0.00  0.00    +0.000 A 
ATOM     23 BR   UNL     1       2.312  51.314  61.164  0.00  0.00    +0.000 Br
ATOM     24  C   UNL     1       1.004  50.440  63.544  0.00  0.00    +0.000 A 
ATOM     25  C   UNL     1       0.772  49.568  64.610  0.00  0.00    +0.000 A 
ENDBRANCH  18  19
ENDBRANCH  17  18
ENDBRANCH  16  17
ENDBRANCH   9  16
TORSDOF 4
ENDMDL
MODEL 5
REMARK VINA RESULT:      -7.1      4.315      7.900
REMARK  Name = CHEMBL1215473-5450
REMARK  4 active torsions:
REMARK  status: ('A' for Active; 'I' for Inactive)
REMARK    1  A    between atoms: N_9  and  C_10
REMARK    2  A    between atoms: C_10  and  C_11
REMARK    3  A    between atoms: C_11  and  O_12
REMARK    4  A    between atoms: O_12  and  C_13
REMARK                            x       y       z     vdW  Elec       q    Type
REMARK                         _______ _______ _______ _____ _____    ______ ____
ROOT
ATOM      1  N   UNL     1       2.693  48.780  63.185  0.00  0.00    +0.000 N 
ATOM      2  C   UNL     1       1.710  48.726  64.078  0.00  0.00    +0.000 A 
ATOM      3  N   UNL     1       0.521  49.300  63.948  0.00  0.00    +0.000 NA
ATOM      4  N   UNL     1      -0.048  48.974  65.118  0.00  0.00    +0.000 N 
ATOM      5  C   UNL     1       0.780  48.204  65.891  0.00  0.00    +0.000 A 
ATOM      6  N   UNL     1       0.469  47.797  67.144  0.00  0.00    +0.000 N 
ATOM      7  C   UNL     1      -0.883  47.768  67.702  0.00  0.00    +0.000 C 
ATOM      8  C   UNL     1      -0.869  48.270  69.169  0.00  0.00    +0.000 C 
ATOM      9  N   UNL     1       0.120  47.603  70.052  0.00  0.00    +0.000 NA
ATOM     10  C   UNL     1       1.450  47.693  69.392  0.00  0.00    +0.000 C 
ATOM     11  C   UNL     1       1.499  47.134  67.952  0.00  0.00    +0.000 C 
ATOM     12  N   UNL     1       1.902  48.031  65.228  0.00  0.00    +0.000 NA
ATOM     13  H   UNL     1       2.461  49.084  62.251  0.00  0.00    +0.000 HD
ATOM     14  H   UNL     1       3.430  48.092  63.255  0.00  0.00    +0.000 HD
ATOM     15  H   UNL     1      -0.960  49.343  65.344  0.00  0.00    +0.000 HD
ENDROOT
BRANCH   9  16
ATOM     16  C   UNL     1      -0.289  46.216  70.345  0.00  0.00    +0.000 C 
BRANCH  16  17
ATOM     17  C   UNL     1      -1.781  46.083  70.677  0.00  0.00    +0.000 C 
BRANCH  17  18
ATOM     18  O   UNL     1      -2.281  44.848  70.159  0.00  0.00    +0.000 OA
BRANCH  18  19
ATOM     19  C   UNL     1      -3.552  44.901  69.648  0.00  0.00    +0.000 A 
ATOM     20  C   UNL     1      -3.970  45.704  68.583  0.00  0.00    +0.000 A 
ATOM     21  C   UNL     1      -5.293  45.653  68.134  0.00  0.00    +0.000 A 
ATOM     22  C   UNL     1      -6.200  44.797  68.755  0.00  0.00    +0.000 A 
ATOM     23 BR   UNL     1      -7.980  44.711  68.130  0.00  0.00    +0.000 Br
ATOM     24  C   UNL     1      -5.800  44.004  69.827  0.00  0.00    +0.000 A 
ATOM     25  C   UNL     1      -4.477  44.058  70.274  0.00  0.00    +0.000 A 
ENDBRANCH  18  19
ENDBRANCH  17  18
ENDBRANCH  16  17
ENDBRANCH   9  16
TORSDOF 4
ENDMDL
MODEL 6
REMARK VINA RESULT:      -7.1      3.737      5.274
REMARK  Name = CHEMBL1215473-5450
REMARK  4 active torsions:
REMARK  status: ('A' for Active; 'I' for Inactive)
REMARK    1  A    between atoms: N_9  and  C_10
REMARK    2  A    between atoms: C_10  and  C_11
REMARK    3  A    between atoms: C_11  and  O_12
REMARK    4  A    between atoms: O_12  and  C_13
REMARK                            x       y       z     vdW  Elec       q    Type
REMARK                         _______ _______ _______ _____ _____    ______ ____
ROOT
ATOM      1  N   UNL     1      -2.025  54.068  68.915  0.00  0.00    +0.000 N 
ATOM      2  C   UNL     1      -2.097  52.778  68.607  0.00  0.00    +0.000 A 
ATOM      3  N   UNL     1      -3.009  51.929  69.062  0.00  0.00    +0.000 NA
ATOM      4  N   UNL     1      -2.602  50.787  68.488  0.00  0.00    +0.000 N 
ATOM      5  C   UNL     1      -1.501  50.978  67.696  0.00  0.00    +0.000 A 
ATOM      6  N   UNL     1      -0.857  49.974  67.056  0.00  0.00    +0.000 N 
ATOM      7  C   UNL     1      -1.426  48.653  66.788  0.00  0.00    +0.000 C 
ATOM      8  C   UNL     1      -0.363  47.552  67.039  0.00  0.00    +0.000 C 
ATOM      9  N   UNL     1       0.934  47.759  66.348  0.00  0.00    +0.000 NA
ATOM     10  C   UNL     1       1.417  49.123  66.690  0.00  0.00    +0.000 C 
ATOM     11  C   UNL     1       0.416  50.262  66.385  0.00  0.00    +0.000 C 
ATOM     12  N   UNL     1      -1.178  52.251  67.758  0.00  0.00    +0.000 NA
ATOM     13  H   UNL     1      -2.835  54.494  69.342  0.00  0.00    +0.000 HD
ATOM     14  H   UNL     1      -1.480  54.666  68.310  0.00  0.00    +0.000 HD
ATOM     15  H   UNL     1      -3.076  49.924  68.712  0.00  0.00    +0.000 HD
ENDROOT
BRANCH   9  16
ATOM     16  C   UNL     1       0.795  47.540  64.895  0.00  0.00    +0.000 C 
BRANCH  16  17
ATOM     17  C   UNL     1       2.095  47.784  64.120  0.00  0.00    +0.000 C 
BRANCH  17  18
ATOM     18  O   UNL     1       2.030  49.047  63.455  0.00  0.00    +0.000 OA
BRANCH  18  19
ATOM     19  C   UNL     1       2.998  49.259  62.507  0.00  0.00    +0.000 A 
ATOM     20  C   UNL     1       4.145  48.480  62.325  0.00  0.00    +0.000 A 
ATOM     21  C   UNL     1       5.051  48.782  61.304  0.00  0.00    +0.000 A 
ATOM     22  C   UNL     1       4.810  49.869  60.466  0.00  0.00    +0.000 A 
ATOM     23 BR   UNL     1       6.023  50.258  59.072  0.00  0.00    +0.000 Br
ATOM     24  C   UNL     1       3.680  50.661  60.647  0.00  0.00    +0.000 A 
ATOM     25  C   UNL     1       2.777  50.357  61.669  0.00  0.00    +0.000 A 
ENDBRANCH  18  19
ENDBRANCH  17  18
ENDBRANCH  16  17
ENDBRANCH   9  16
TORSDOF 4
ENDMDL
MODEL 7
REMARK VINA RESULT:      -6.9      4.712      8.462
REMARK  Name = CHEMBL1215473-5450
REMARK  4 active torsions:
REMARK  status: ('A' for Active; 'I' for Inactive)
REMARK    1  A    between atoms: N_9  and  C_10
REMARK    2  A    between atoms: C_10  and  C_11
REMARK    3  A    between atoms: C_11  and  O_12
REMARK    4  A    between atoms: O_12  and  C_13
REMARK                            x       y       z     vdW  Elec       q    Type
REMARK                         _______ _______ _______ _____ _____    ______ ____
ROOT
ATOM      1  N   UNL     1       1.683  50.883  61.644  0.00  0.00    +0.000 N 
ATOM      2  C   UNL     1       0.919  51.247  62.669  0.00  0.00    +0.000 A 
ATOM      3  N   UNL     1       0.380  52.448  62.837  0.00  0.00    +0.000 NA
ATOM      4  N   UNL     1      -0.237  52.286  64.017  0.00  0.00    +0.000 N 
ATOM      5  C   UNL     1      -0.084  51.014  64.502  0.00  0.00    +0.000 A 
ATOM      6  N   UNL     1      -0.556  50.612  65.706  0.00  0.00    +0.000 N 
ATOM      7  C   UNL     1      -1.593  51.304  66.471  0.00  0.00    +0.000 C 
ATOM      8  C   UNL     1      -1.224  51.325  67.977  0.00  0.00    +0.000 C 
ATOM      9  N   UNL     1      -0.879  50.005  68.559  0.00  0.00    +0.000 NA
ATOM     10  C   UNL     1       0.178  49.396  67.709  0.00  0.00    +0.000 C 
ATOM     11  C   UNL     1      -0.180  49.285  66.208  0.00  0.00    +0.000 C 
ATOM     12  N   UNL     1       0.644  50.340  63.641  0.00  0.00    +0.000 NA
ATOM     13  H   UNL     1       1.680  51.473  60.825  0.00  0.00    +0.000 HD
ATOM     14  H   UNL     1       1.802  49.894  61.475  0.00  0.00    +0.000 HD
ATOM     15  H   UNL     1      -0.689  53.077  64.451  0.00  0.00    +0.000 HD
ENDROOT
BRANCH   9  16
ATOM     16  C   UNL     1      -2.081  49.157  68.686  0.00  0.00    +0.000 C 
BRANCH  16  17
ATOM     17  C   UNL     1      -1.756  47.686  68.973  0.00  0.00    +0.000 C 
BRANCH  17  18
ATOM     18  O   UNL     1      -2.469  46.848  68.060  0.00  0.00    +0.000 OA
BRANCH  18  19
ATOM     19  C   UNL     1      -3.366  45.987  68.638  0.00  0.00    +0.000 A 
ATOM     20  C   UNL     1      -4.695  45.807  68.242  0.00  0.00    +0.000 A 
ATOM     21  C   UNL     1      -5.509  44.877  68.896  0.00  0.00    +0.000 A 
ATOM     22  C   UNL     1      -4.991  44.126  69.949  0.00  0.00    +0.000 A 
ATOM     23 BR   UNL     1      -6.086  42.852  70.813  0.00  0.00    +0.000 Br
ATOM     24  C   UNL     1      -3.674  44.307  70.363  0.00  0.00    +0.000 A 
ATOM     25  C   UNL     1      -2.864  45.238  69.708  0.00  0.00    +0.000 A 
ENDBRANCH  18  19
ENDBRANCH  17  18
ENDBRANCH  16  17
ENDBRANCH   9  16
TORSDOF 4
ENDMDL
MODEL 8
REMARK VINA RESULT:      -6.9      1.678      2.344
REMARK  Name = CHEMBL1215473-5450
REMARK  4 active torsions:
REMARK  status: ('A' for Active; 'I' for Inactive)
REMARK    1  A    between atoms: N_9  and  C_10
REMARK    2  A    between atoms: C_10  and  C_11
REMARK    3  A    between atoms: C_11  and  O_12
REMARK    4  A    between atoms: O_12  and  C_13
REMARK                            x       y       z     vdW  Elec       q    Type
REMARK                         _______ _______ _______ _____ _____    ______ ____
ROOT
ATOM      1  N   UNL     1      -6.609  42.885  70.055  0.00  0.00    +0.000 N 
ATOM      2  C   UNL     1      -5.559  43.698  70.018  0.00  0.00    +0.000 A 
ATOM      3  N   UNL     1      -4.618  43.781  70.950  0.00  0.00    +0.000 NA
ATOM      4  N   UNL     1      -3.847  44.756  70.447  0.00  0.00    +0.000 N 
ATOM      5  C   UNL     1      -4.314  45.203  69.239  0.00  0.00    +0.000 A 
ATOM      6  N   UNL     1      -3.753  46.228  68.554  0.00  0.00    +0.000 N 
ATOM      7  C   UNL     1      -2.399  46.736  68.771  0.00  0.00    +0.000 C 
ATOM      8  C   UNL     1      -2.393  48.285  68.713  0.00  0.00    +0.000 C 
ATOM      9  N   UNL     1      -3.030  48.873  67.508  0.00  0.00    +0.000 NA
ATOM     10  C   UNL     1      -4.393  48.291  67.387  0.00  0.00    +0.000 C 
ATOM     11  C   UNL     1      -4.439  46.745  67.364  0.00  0.00    +0.000 C 
ATOM     12  N   UNL     1      -5.402  44.524  68.953  0.00  0.00    +0.000 NA
ATOM     13  H   UNL     1      -6.587  42.121  70.715  0.00  0.00    +0.000 HD
ATOM     14  H   UNL     1      -7.095  42.705  69.188  0.00  0.00    +0.000 HD
ATOM     15  H   UNL     1      -3.066  45.098  70.988  0.00  0.00    +0.000 HD
ENDROOT
BRANCH   9  16
ATOM     16  C   UNL     1      -2.196  48.650  66.311  0.00  0.00    +0.000 C 
BRANCH  16  17
ATOM     17  C   UNL     1      -0.709  48.941  66.548  0.00  0.00    +0.000 C 
BRANCH  17  18
ATOM     18  O   UNL     1      -0.283  50.002  65.689  0.00  0.00    +0.000 OA
BRANCH  18  19
ATOM     19  C   UNL     1       0.706  49.671  64.800  0.00  0.00    +0.000 A 
ATOM     20  C   UNL     1       1.577  48.584  64.916  0.00  0.00    +0.000 A 
ATOM     21  C   UNL     1       2.534  48.334  63.928  0.00  0.00    +0.000 A 
ATOM     22  C   UNL     1       2.620  49.177  62.821  0.00  0.00    +0.000 A 
ATOM     23 BR   UNL     1       3.897  48.821  61.475  0.00  0.00    +0.000 Br
ATOM     24  C   UNL     1       1.769  50.272  62.702  0.00  0.00    +0.000 A 
ATOM     25  C   UNL     1       0.815  50.519  63.692  0.00  0.00    +0.000 A 
ENDBRANCH  18  19
ENDBRANCH  17  18
ENDBRANCH  16  17
ENDBRANCH   9  16
TORSDOF 4
ENDMDL
MODEL 9
REMARK VINA RESULT:      -6.8      5.149      8.874
REMARK  Name = CHEMBL1215473-5450
REMARK  4 active torsions:
REMARK  status: ('A' for Active; 'I' for Inactive)
REMARK    1  A    between atoms: N_9  and  C_10
REMARK    2  A    between atoms: C_10  and  C_11
REMARK    3  A    between atoms: C_11  and  O_12
REMARK    4  A    between atoms: O_12  and  C_13
REMARK                            x       y       z     vdW  Elec       q    Type
REMARK                         _______ _______ _______ _____ _____    ______ ____
ROOT
ATOM      1  N   UNL     1       3.544  51.683  59.974  0.00  0.00    +0.000 N 
ATOM      2  C   UNL     1       3.377  50.741  60.896  0.00  0.00    +0.000 A 
ATOM      3  N   UNL     1       4.077  49.617  60.982  0.00  0.00    +0.000 NA
ATOM      4  N   UNL     1       3.487  49.030  62.034  0.00  0.00    +0.000 N 
ATOM      5  C   UNL     1       2.492  49.811  62.562  0.00  0.00    +0.000 A 
ATOM      6  N   UNL     1       1.701  49.420  63.588  0.00  0.00    +0.000 N 
ATOM      7  C   UNL     1       2.012  48.333  64.517  0.00  0.00    +0.000 C 
ATOM      8  C   UNL     1       0.741  47.493  64.805  0.00  0.00    +0.000 C 
ATOM      9  N   UNL     1      -0.448  48.274  65.227  0.00  0.00    +0.000 NA
ATOM     10  C   UNL     1      -0.671  49.342  64.217  0.00  0.00    +0.000 C 
ATOM     11  C   UNL     1       0.550  50.254  63.955  0.00  0.00    +0.000 C 
ATOM     12  N   UNL     1       2.424  50.911  61.847  0.00  0.00    +0.000 NA
ATOM     13  H   UNL     1       4.396  51.663  59.433  0.00  0.00    +0.000 HD
ATOM     14  H   UNL     1       3.164  52.600  60.164  0.00  0.00    +0.000 HD
ATOM     15  H   UNL     1       3.767  48.098  62.302  0.00  0.00    +0.000 HD
ENDROOT
BRANCH   9  16
ATOM     16  C   UNL     1      -0.271  48.799  66.596  0.00  0.00    +0.000 C 
BRANCH  16  17
ATOM     17  C   UNL     1      -1.473  48.524  67.509  0.00  0.00    +0.000 C 
BRANCH  17  18
ATOM     18  O   UNL     1      -2.494  47.851  66.770  0.00  0.00    +0.000 OA
BRANCH  18  19
ATOM     19  C   UNL     1      -3.258  46.974  67.496  0.00  0.00    +0.000 A 
ATOM     20  C   UNL     1      -4.582  46.620  67.216  0.00  0.00    +0.000 A 
ATOM     21  C   UNL     1      -5.252  45.692  68.019  0.00  0.00    +0.000 A 
ATOM     22  C   UNL     1      -4.595  45.118  69.106  0.00  0.00    +0.000 A 
ATOM     23 BR   UNL     1      -5.495  43.846  70.173  0.00  0.00    +0.000 Br
ATOM     24  C   UNL     1      -3.283  45.474  69.404  0.00  0.00    +0.000 A 
ATOM     25  C   UNL     1      -2.617  46.403  68.600  0.00  0.00    +0.000 A 
ENDBRANCH  18  19
ENDBRANCH  17  18
ENDBRANCH  16  17
ENDBRANCH   9  16
TORSDOF 4
ENDMDL
