MODEL 1
REMARK VINA RESULT:      -8.1      0.000      0.000
REMARK  Name = CHEMBL197199-4500
REMARK  13 active torsions:
REMARK  status: ('A' for Active; 'I' for Inactive)
REMARK    1  A    between atoms: C_1  and  N_2
REMARK    2  A    between atoms: N_8  and  C_9
REMARK    3  A    between atoms: C_9  and  C_10
REMARK    4  A    between atoms: C_10  and  C_11
REMARK    5  A    between atoms: C_11  and  C_12
REMARK    6  A    between atoms: C_16  and  C_17
REMARK    7  A    between atoms: C_22  and  C_23
REMARK    8  A    between atoms: C_23  and  O_25
REMARK    9  A    between atoms: CA_30  and  C_31
REMARK   10  A    between atoms: C_31  and  OXT_33
REMARK   11  A    between atoms: CA_37  and  CB_38
REMARK   12  A    between atoms: CB_38  and  CG_39
REMARK   13  A    between atoms: N_45  and  C_46
REMARK                            x       y       z     vdW  Elec       q    Type
REMARK                         _______ _______ _______ _____ _____    ______ ____
ROOT
ATOM      1  C   UNK A   1      -0.192  49.951  65.434  0.00  0.00    +0.000 C 
ATOM      2  N   UNK A   1      -1.137  50.277  66.533  0.00  0.00    +0.000 N 
ATOM      3  C   UNK A   1      -1.647  49.427  67.482  0.00  0.00    +0.000 C 
ATOM      4  O   UNK A   1      -1.088  48.376  67.795  0.00  0.00    +0.000 OA
ATOM      5  C   UNK A   1      -3.125  49.699  67.886  0.00  0.00    +0.000 C 
ATOM      6  C   UNK A   1      -3.630  51.101  67.540  0.00  0.00    +0.000 C 
ATOM      7  N   UNK A   1      -3.897  48.694  67.136  0.00  0.00    +0.000 N 
ATOM      8  C   UNK A   1      -5.264  48.598  67.223  0.00  0.00    +0.000 C 
ATOM      9  O   UNK A   1      -5.935  49.144  68.088  0.00  0.00    +0.000 OA
ATOM     10  C   UNK A   1      -5.895  47.812  66.096  0.00  0.00    +0.000 C 
ATOM     11  C   UNK A   1      -6.798  48.662  65.193  0.00  0.00    +0.000 C 
ATOM     12  N   ASN A   3      -6.013  49.394  64.184  0.00  0.00    +0.000 N 
ATOM     13  CG  ASN A   3      -6.534  49.634  62.928  0.00  0.00    +0.000 C 
ATOM     14  OD1 ASN A   3      -7.670  49.299  62.589  0.00  0.00    +0.000 OA
ATOM     15  CB  ASN A   3      -5.532  50.152  61.906  0.00  0.00    +0.000 C 
ATOM     16  CA  ASN A   3      -4.149  49.550  62.150  0.00  0.00    +0.000 C 
ATOM     17  N   ASN A   3      -3.169  49.936  61.123  0.00  0.00    +0.000 N 
ATOM     18  C   PHE A   2      -1.978  50.614  61.167  0.00  0.00    +0.000 C 
ATOM     19  O   PHE A   2      -1.226  50.474  60.194  0.00  0.00    +0.000 OA
ATOM     20  CA  PHE A   2      -1.564  51.536  62.361  0.00  0.00    +0.000 C 
ATOM     21  N   PHE A   2      -0.430  50.957  63.132  0.00  0.00    +0.000 N 
ATOM     22  C   ACE A   0       0.906  50.994  62.541  0.00  0.00    +0.000 C 
ATOM     23  C   UNK A   1      -0.487  51.169  64.500  0.00  0.00    +0.000 C 
ATOM     24  O   UNK A   1      -0.886  52.243  64.968  0.00  0.00    +0.000 OA
ATOM     25  H   UNK A   1      -1.433  51.252  66.549  0.00  0.00    +0.000 HD
ATOM     26  H   UNK A   1      -3.399  47.833  66.924  0.00  0.00    +0.000 HD
ATOM     27  H   ASN A   3      -5.382  50.091  64.562  0.00  0.00    +0.000 HD
ATOM     28  H   ASN A   3      -3.216  49.416  60.251  0.00  0.00    +0.000 HD
ENDROOT
BRANCH  11  29
ATOM     29  C   UNK A   1      -7.660  49.709  65.911  0.00  0.00    +0.000 C 
ATOM     30  O   UNK A   1      -7.506  50.917  65.766  0.00  0.00    +0.000 OA
BRANCH  29  31
ATOM     31  O   UNK A   1      -8.634  49.183  66.683  0.00  0.00    +0.000 OA
ATOM     32  H   UNK A   1      -9.536  49.495  66.481  0.00  0.00    +0.000 HD
ENDBRANCH  29  31
ENDBRANCH  11  29
BRANCH  16  33
ATOM     33  C   ASN A   3      -4.201  48.009  62.309  0.00  0.00    +0.000 C 
ATOM     34  O   ASN A   3      -4.702  47.312  61.434  0.00  0.00    +0.000 OA
BRANCH  33  35
ATOM     35  OXT ASN A   3      -3.737  47.436  63.438  0.00  0.00    +0.000 OA
ATOM     36  HXT ASN A   3      -3.097  46.697  63.417  0.00  0.00    +0.000 HD
ENDBRANCH  33  35
ENDBRANCH  16  33
BRANCH   1  37
ATOM     37  C   UNK A   1      -0.547  48.583  64.818  0.00  0.00    +0.000 C 
BRANCH  37  38
ATOM     38  C   UNK A   1       0.494  47.460  64.814  0.00  0.00    +0.000 C 
BRANCH  38  39
ATOM     39  C   UNK A   1       1.945  47.897  64.567  0.00  0.00    +0.000 C 
BRANCH  39  47
ATOM     40  C   UNK A   1       5.453  49.016  59.167  0.00  0.00    +0.000 C 
ATOM     41  N   UNK A   1       4.590  48.913  60.322  0.00  0.00    +0.000 N 
ATOM     42  C   UNK A   1       4.505  47.701  60.970  0.00  0.00    +0.000 C 
ATOM     43  O   UNK A   1       5.141  46.716  60.610  0.00  0.00    +0.000 OA
ATOM     44  N   UNK A   1       3.662  47.723  62.062  0.00  0.00    +0.000 N 
ATOM     45  C   UNK A   1       3.456  46.674  62.921  0.00  0.00    +0.000 C 
ATOM     46  N   UNK A   1       4.005  45.521  62.737  0.00  0.00    +0.000 NA
ATOM     47  N   UNK A   1       2.674  46.785  64.017  0.00  0.00    +0.000 N 
ATOM     48  H   UNK A   1       3.789  49.524  60.357  0.00  0.00    +0.000 HD
ATOM     49  H   UNK A   1       3.265  48.607  62.321  0.00  0.00    +0.000 HD
ATOM     50  H   UNK A   1       4.585  45.563  61.881  0.00  0.00    +0.000 HD
ATOM     51  H   UNK A   1       2.733  45.939  64.583  0.00  0.00    +0.000 HD
ENDBRANCH  39  47
ENDBRANCH  38  39
ENDBRANCH  37  38
ENDBRANCH   1  37
BRANCH  20  52
ATOM     52  CB  PHE A   2      -1.272  52.972  61.847  0.00  0.00    +0.000 C 
BRANCH  52  53
ATOM     53  CG  PHE A   2      -2.357  53.453  60.911  0.00  0.00    +0.000 A 
ATOM     54  CD1 PHE A   2      -3.705  53.329  61.275  0.00  0.00    +0.000 A 
ATOM     55  CE1 PHE A   2      -4.711  53.584  60.345  0.00  0.00    +0.000 A 
ATOM     56  CZ  PHE A   2      -4.381  54.013  59.062  0.00  0.00    +0.000 A 
ATOM     57  CE2 PHE A   2      -3.047  54.226  58.720  0.00  0.00    +0.000 A 
ATOM     58  CD2 PHE A   2      -2.036  53.948  59.641  0.00  0.00    +0.000 A 
ENDBRANCH  52  53
ENDBRANCH  20  52
TORSDOF 10
ENDMDL
MODEL 2
REMARK VINA RESULT:      -8.0      3.539      7.491
REMARK  Name = CHEMBL197199-4500
REMARK  13 active torsions:
REMARK  status: ('A' for Active; 'I' for Inactive)
REMARK    1  A    between atoms: C_1  and  N_2
REMARK    2  A    between atoms: N_8  and  C_9
REMARK    3  A    between atoms: C_9  and  C_10
REMARK    4  A    between atoms: C_10  and  C_11
REMARK    5  A    between atoms: C_11  and  C_12
REMARK    6  A    between atoms: C_16  and  C_17
REMARK    7  A    between atoms: C_22  and  C_23
REMARK    8  A    between atoms: C_23  and  O_25
REMARK    9  A    between atoms: CA_30  and  C_31
REMARK   10  A    between atoms: C_31  and  OXT_33
REMARK   11  A    between atoms: CA_37  and  CB_38
REMARK   12  A    between atoms: CB_38  and  CG_39
REMARK   13  A    between atoms: N_45  and  C_46
REMARK                            x       y       z     vdW  Elec       q    Type
REMARK                         _______ _______ _______ _____ _____    ______ ____
ROOT
ATOM      1  C   UNK A   1      -1.865  52.259  59.404  0.00  0.00    +0.000 C 
ATOM      2  N   UNK A   1      -2.444  50.983  58.910  0.00  0.00    +0.000 N 
ATOM      3  C   UNK A   1      -3.726  50.754  58.479  0.00  0.00    +0.000 C 
ATOM      4  O   UNK A   1      -4.456  51.656  58.066  0.00  0.00    +0.000 OA
ATOM      5  C   UNK A   1      -4.311  49.361  58.855  0.00  0.00    +0.000 C 
ATOM      6  C   UNK A   1      -3.262  48.310  59.222  0.00  0.00    +0.000 C 
ATOM      7  N   UNK A   1      -5.170  49.631  60.021  0.00  0.00    +0.000 N 
ATOM      8  C   UNK A   1      -5.881  48.645  60.658  0.00  0.00    +0.000 C 
ATOM      9  O   UNK A   1      -6.070  47.528  60.195  0.00  0.00    +0.000 OA
ATOM     10  C   UNK A   1      -6.353  49.028  62.042  0.00  0.00    +0.000 C 
ATOM     11  C   UNK A   1      -5.708  48.197  63.158  0.00  0.00    +0.000 C 
ATOM     12  N   ASN A   3      -4.377  48.718  63.516  0.00  0.00    +0.000 N 
ATOM     13  CG  ASN A   3      -3.921  48.643  64.817  0.00  0.00    +0.000 C 
ATOM     14  OD1 ASN A   3      -4.557  48.115  65.730  0.00  0.00    +0.000 OA
ATOM     15  CB  ASN A   3      -2.663  49.452  65.103  0.00  0.00    +0.000 C 
ATOM     16  CA  ASN A   3      -2.641  50.732  64.269  0.00  0.00    +0.000 C 
ATOM     17  N   ASN A   3      -1.498  51.601  64.588  0.00  0.00    +0.000 N 
ATOM     18  C   PHE A   2      -0.445  52.079  63.852  0.00  0.00    +0.000 C 
ATOM     19  O   PHE A   2       0.150  53.062  64.312  0.00  0.00    +0.000 OA
ATOM     20  CA  PHE A   2       0.017  51.434  62.504  0.00  0.00    +0.000 C 
ATOM     21  N   PHE A   2      -0.256  52.328  61.346  0.00  0.00    +0.000 N 
ATOM     22  C   ACE A   0       0.589  53.506  61.160  0.00  0.00    +0.000 C 
ATOM     23  C   UNK A   1      -0.644  51.678  60.185  0.00  0.00    +0.000 C 
ATOM     24  O   UNK A   1      -0.131  50.603  59.850  0.00  0.00    +0.000 OA
ATOM     25  H   UNK A   1      -1.791  50.201  58.919  0.00  0.00    +0.000 HD
ATOM     26  H   UNK A   1      -5.567  50.568  60.060  0.00  0.00    +0.000 HD
ATOM     27  H   ASN A   3      -3.684  48.652  62.780  0.00  0.00    +0.000 HD
ATOM     28  H   ASN A   3      -1.600  52.174  65.421  0.00  0.00    +0.000 HD
ENDROOT
BRANCH  11  29
ATOM     29  C   UNK A   1      -5.517  46.705  62.850  0.00  0.00    +0.000 C 
ATOM     30  O   UNK A   1      -6.361  45.854  63.108  0.00  0.00    +0.000 OA
BRANCH  29  31
ATOM     31  O   UNK A   1      -4.355  46.418  62.225  0.00  0.00    +0.000 OA
ATOM     32  H   UNK A   1      -3.554  46.540  62.767  0.00  0.00    +0.000 HD
ENDBRANCH  29  31
ENDBRANCH  11  29
BRANCH  16  33
ATOM     33  C   ASN A   3      -3.974  51.517  64.365  0.00  0.00    +0.000 C 
ATOM     34  O   ASN A   3      -4.621  51.765  63.353  0.00  0.00    +0.000 OA
BRANCH  33  35
ATOM     35  OXT ASN A   3      -4.398  51.975  65.560  0.00  0.00    +0.000 OA
ATOM     36  HXT ASN A   3      -5.274  52.395  65.671  0.00  0.00    +0.000 HD
ENDBRANCH  33  35
ENDBRANCH  16  33
BRANCH   1  37
ATOM     37  C   UNK A   1      -2.889  52.998  60.289  0.00  0.00    +0.000 C 
BRANCH  37  38
ATOM     38  C   UNK A   1      -2.878  54.528  60.348  0.00  0.00    +0.000 C 
BRANCH  38  39
ATOM     39  C   UNK A   1      -2.288  55.237  59.121  0.00  0.00    +0.000 C 
BRANCH  39  47
ATOM     40  C   UNK A   1       3.150  57.225  56.088  0.00  0.00    +0.000 C 
ATOM     41  N   UNK A   1       1.985  56.627  56.700  0.00  0.00    +0.000 N 
ATOM     42  C   UNK A   1       1.341  57.321  57.699  0.00  0.00    +0.000 C 
ATOM     43  O   UNK A   1       1.712  58.428  58.078  0.00  0.00    +0.000 OA
ATOM     44  N   UNK A   1       0.238  56.660  58.201  0.00  0.00    +0.000 N 
ATOM     45  C   UNK A   1      -0.619  57.161  59.147  0.00  0.00    +0.000 C 
ATOM     46  N   UNK A   1      -0.424  58.306  59.711  0.00  0.00    +0.000 NA
ATOM     47  N   UNK A   1      -1.725  56.493  59.542  0.00  0.00    +0.000 N 
ATOM     48  H   UNK A   1       1.937  55.620  56.719  0.00  0.00    +0.000 HD
ATOM     49  H   UNK A   1      -0.030  55.803  57.754  0.00  0.00    +0.000 HD
ATOM     50  H   UNK A   1       0.439  58.724  59.321  0.00  0.00    +0.000 HD
ATOM     51  H   UNK A   1      -2.287  57.071  60.165  0.00  0.00    +0.000 HD
ENDBRANCH  39  47
ENDBRANCH  38  39
ENDBRANCH  37  38
ENDBRANCH   1  37
BRANCH  20  52
ATOM     52  CB  PHE A   2       1.509  51.012  62.600  0.00  0.00    +0.000 C 
BRANCH  52  53
ATOM     53  CG  PHE A   2       1.650  49.615  63.160  0.00  0.00    +0.000 A 
ATOM     54  CD1 PHE A   2       0.811  49.185  64.198  0.00  0.00    +0.000 A 
ATOM     55  CE1 PHE A   2       1.060  47.980  64.851  0.00  0.00    +0.000 A 
ATOM     56  CZ  PHE A   2       2.117  47.171  64.440  0.00  0.00    +0.000 A 
ATOM     57  CE2 PHE A   2       2.900  47.547  63.350  0.00  0.00    +0.000 A 
ATOM     58  CD2 PHE A   2       2.668  48.765  62.709  0.00  0.00    +0.000 A 
ENDBRANCH  52  53
ENDBRANCH  20  52
TORSDOF 10
ENDMDL
MODEL 3
REMARK VINA RESULT:      -7.8      3.179      8.106
REMARK  Name = CHEMBL197199-4500
REMARK  13 active torsions:
REMARK  status: ('A' for Active; 'I' for Inactive)
REMARK    1  A    between atoms: C_1  and  N_2
REMARK    2  A    between atoms: N_8  and  C_9
REMARK    3  A    between atoms: C_9  and  C_10
REMARK    4  A    between atoms: C_10  and  C_11
REMARK    5  A    between atoms: C_11  and  C_12
REMARK    6  A    between atoms: C_16  and  C_17
REMARK    7  A    between atoms: C_22  and  C_23
REMARK    8  A    between atoms: C_23  and  O_25
REMARK    9  A    between atoms: CA_30  and  C_31
REMARK   10  A    between atoms: C_31  and  OXT_33
REMARK   11  A    between atoms: CA_37  and  CB_38
REMARK   12  A    between atoms: CB_38  and  CG_39
REMARK   13  A    between atoms: N_45  and  C_46
REMARK                            x       y       z     vdW  Elec       q    Type
REMARK                         _______ _______ _______ _____ _____    ______ ____
ROOT
ATOM      1  C   UNK A   1      -1.343  51.799  58.732  0.00  0.00    +0.000 C 
ATOM      2  N   UNK A   1      -1.885  50.466  58.361  0.00  0.00    +0.000 N 
ATOM      3  C   UNK A   1      -3.111  50.181  57.816  0.00  0.00    +0.000 C 
ATOM      4  O   UNK A   1      -3.769  51.016  57.194  0.00  0.00    +0.000 OA
ATOM      5  C   UNK A   1      -3.764  48.859  58.315  0.00  0.00    +0.000 C 
ATOM      6  C   UNK A   1      -2.787  47.869  58.952  0.00  0.00    +0.000 C 
ATOM      7  N   UNK A   1      -4.749  49.297  59.319  0.00  0.00    +0.000 N 
ATOM      8  C   UNK A   1      -5.550  48.415  60.002  0.00  0.00    +0.000 C 
ATOM      9  O   UNK A   1      -5.705  47.244  59.684  0.00  0.00    +0.000 OA
ATOM     10  C   UNK A   1      -6.174  48.996  61.250  0.00  0.00    +0.000 C 
ATOM     11  C   UNK A   1      -5.682  48.333  62.542  0.00  0.00    +0.000 C 
ATOM     12  N   ASN A   3      -4.393  48.897  62.978  0.00  0.00    +0.000 N 
ATOM     13  CG  ASN A   3      -4.095  49.009  64.322  0.00  0.00    +0.000 C 
ATOM     14  OD1 ASN A   3      -4.845  48.620  65.219  0.00  0.00    +0.000 OA
ATOM     15  CB  ASN A   3      -2.864  49.848  64.638  0.00  0.00    +0.000 C 
ATOM     16  CA  ASN A   3      -2.717  50.993  63.638  0.00  0.00    +0.000 C 
ATOM     17  N   ASN A   3      -1.603  51.897  63.964  0.00  0.00    +0.000 N 
ATOM     18  C   PHE A   2      -0.462  52.260  63.298  0.00  0.00    +0.000 C 
ATOM     19  O   PHE A   2       0.095  53.297  63.680  0.00  0.00    +0.000 OA
ATOM     20  CA  PHE A   2       0.144  51.426  62.122  0.00  0.00    +0.000 C 
ATOM     21  N   PHE A   2       0.027  52.144  60.823  0.00  0.00    +0.000 N 
ATOM     22  C   ACE A   0       0.912  53.279  60.573  0.00  0.00    +0.000 C 
ATOM     23  C   UNK A   1      -0.234  51.333  59.729  0.00  0.00    +0.000 C 
ATOM     24  O   UNK A   1       0.293  50.220  59.615  0.00  0.00    +0.000 OA
ATOM     25  H   UNK A   1      -1.253  49.692  58.560  0.00  0.00    +0.000 HD
ATOM     26  H   UNK A   1      -5.129  50.230  59.176  0.00  0.00    +0.000 HD
ATOM     27  H   ASN A   3      -3.619  48.723  62.348  0.00  0.00    +0.000 HD
ATOM     28  H   ASN A   3      -1.791  52.585  64.688  0.00  0.00    +0.000 HD
ENDROOT
BRANCH  11  29
ATOM     29  C   UNK A   1      -5.486  46.812  62.476  0.00  0.00    +0.000 C 
ATOM     30  O   UNK A   1      -6.364  46.009  62.775  0.00  0.00    +0.000 OA
BRANCH  29  31
ATOM     31  O   UNK A   1      -4.275  46.434  62.014  0.00  0.00    +0.000 OA
ATOM     32  H   UNK A   1      -3.514  46.804  62.498  0.00  0.00    +0.000 HD
ENDBRANCH  29  31
ENDBRANCH  11  29
BRANCH  16  33
ATOM     33  C   ASN A   3      -4.036  51.788  63.460  0.00  0.00    +0.000 C 
ATOM     34  O   ASN A   3      -4.522  51.942  62.344  0.00  0.00    +0.000 OA
BRANCH  33  35
ATOM     35  OXT ASN A   3      -4.626  52.357  64.531  0.00  0.00    +0.000 OA
ATOM     36  HXT ASN A   3      -5.315  53.045  64.436  0.00  0.00    +0.000 HD
ENDBRANCH  33  35
ENDBRANCH  16  33
BRANCH   1  37
ATOM     37  C   UNK A   1      -2.449  52.661  59.374  0.00  0.00    +0.000 C 
BRANCH  37  38
ATOM     38  C   UNK A   1      -2.434  54.180  59.183  0.00  0.00    +0.000 C 
BRANCH  38  39
ATOM     39  C   UNK A   1      -3.279  54.714  58.018  0.00  0.00    +0.000 C 
BRANCH  39  47
ATOM     40  C   UNK A   1      -7.886  50.147  57.214  0.00  0.00    +0.000 C 
ATOM     41  N   UNK A   1      -6.779  51.075  57.269  0.00  0.00    +0.000 N 
ATOM     42  C   UNK A   1      -6.975  52.295  57.874  0.00  0.00    +0.000 C 
ATOM     43  O   UNK A   1      -8.048  52.615  58.378  0.00  0.00    +0.000 OA
ATOM     44  N   UNK A   1      -5.849  53.093  57.877  0.00  0.00    +0.000 N 
ATOM     45  C   UNK A   1      -5.754  54.322  58.478  0.00  0.00    +0.000 C 
ATOM     46  N   UNK A   1      -6.762  54.879  59.059  0.00  0.00    +0.000 NA
ATOM     47  N   UNK A   1      -4.597  55.019  58.508  0.00  0.00    +0.000 N 
ATOM     48  H   UNK A   1      -6.092  51.019  56.533  0.00  0.00    +0.000 HD
ATOM     49  H   UNK A   1      -5.000  52.694  57.520  0.00  0.00    +0.000 HD
ATOM     50  H   UNK A   1      -7.580  54.249  58.982  0.00  0.00    +0.000 HD
ATOM     51  H   UNK A   1      -4.698  55.850  59.090  0.00  0.00    +0.000 HD
ENDBRANCH  39  47
ENDBRANCH  38  39
ENDBRANCH  37  38
ENDBRANCH   1  37
BRANCH  20  52
ATOM     52  CB  PHE A   2       1.605  51.018  62.455  0.00  0.00    +0.000 C 
BRANCH  52  53
ATOM     53  CG  PHE A   2       1.661  49.650  63.096  0.00  0.00    +0.000 A 
ATOM     54  CD1 PHE A   2       0.769  49.319  64.126  0.00  0.00    +0.000 A 
ATOM     55  CE1 PHE A   2       0.939  48.143  64.854  0.00  0.00    +0.000 A 
ATOM     56  CZ  PHE A   2       1.969  47.265  64.526  0.00  0.00    +0.000 A 
ATOM     57  CE2 PHE A   2       2.805  47.542  63.446  0.00  0.00    +0.000 A 
ATOM     58  CD2 PHE A   2       2.652  48.730  62.731  0.00  0.00    +0.000 A 
ENDBRANCH  52  53
ENDBRANCH  20  52
TORSDOF 10
ENDMDL
MODEL 4
REMARK VINA RESULT:      -7.7      3.296      7.677
REMARK  Name = CHEMBL197199-4500
REMARK  13 active torsions:
REMARK  status: ('A' for Active; 'I' for Inactive)
REMARK    1  A    between atoms: C_1  and  N_2
REMARK    2  A    between atoms: N_8  and  C_9
REMARK    3  A    between atoms: C_9  and  C_10
REMARK    4  A    between atoms: C_10  and  C_11
REMARK    5  A    between atoms: C_11  and  C_12
REMARK    6  A    between atoms: C_16  and  C_17
REMARK    7  A    between atoms: C_22  and  C_23
REMARK    8  A    between atoms: C_23  and  O_25
REMARK    9  A    between atoms: CA_30  and  C_31
REMARK   10  A    between atoms: C_31  and  OXT_33
REMARK   11  A    between atoms: CA_37  and  CB_38
REMARK   12  A    between atoms: CB_38  and  CG_39
REMARK   13  A    between atoms: N_45  and  C_46
REMARK                            x       y       z     vdW  Elec       q    Type
REMARK                         _______ _______ _______ _____ _____    ______ ____
ROOT
ATOM      1  C   UNK A   1      -2.810  50.601  57.854  0.00  0.00    +0.000 C 
ATOM      2  N   UNK A   1      -3.563  49.713  58.779  0.00  0.00    +0.000 N 
ATOM      3  C   UNK A   1      -4.770  49.959  59.383  0.00  0.00    +0.000 C 
ATOM      4  O   UNK A   1      -5.580  50.770  58.933  0.00  0.00    +0.000 OA
ATOM      5  C   UNK A   1      -4.907  49.411  60.833  0.00  0.00    +0.000 C 
ATOM      6  C   UNK A   1      -3.903  48.314  61.194  0.00  0.00    +0.000 C 
ATOM      7  N   UNK A   1      -4.683  50.588  61.689  0.00  0.00    +0.000 N 
ATOM      8  C   UNK A   1      -4.725  50.523  63.060  0.00  0.00    +0.000 C 
ATOM      9  O   UNK A   1      -5.182  49.577  63.687  0.00  0.00    +0.000 OA
ATOM     10  C   UNK A   1      -4.074  51.702  63.748  0.00  0.00    +0.000 C 
ATOM     11  C   UNK A   1      -2.823  51.323  64.551  0.00  0.00    +0.000 C 
ATOM     12  N   ASN A   3      -1.636  51.231  63.684  0.00  0.00    +0.000 N 
ATOM     13  CG  ASN A   3      -0.390  51.584  64.161  0.00  0.00    +0.000 C 
ATOM     14  OD1 ASN A   3      -0.185  51.951  65.320  0.00  0.00    +0.000 OA
ATOM     15  CB  ASN A   3       0.695  51.702  63.098  0.00  0.00    +0.000 C 
ATOM     16  CA  ASN A   3       0.112  52.220  61.785  0.00  0.00    +0.000 C 
ATOM     17  N   ASN A   3       1.138  52.454  60.757  0.00  0.00    +0.000 N 
ATOM     18  C   PHE A   2       1.352  51.934  59.507  0.00  0.00    +0.000 C 
ATOM     19  O   PHE A   2       2.093  52.584  58.759  0.00  0.00    +0.000 OA
ATOM     20  CA  PHE A   2       0.722  50.588  59.021  0.00  0.00    +0.000 C 
ATOM     21  N   PHE A   2      -0.298  50.811  57.961  0.00  0.00    +0.000 N 
ATOM     22  C   ACE A   0       0.159  51.168  56.619  0.00  0.00    +0.000 C 
ATOM     23  C   UNK A   1      -1.393  49.964  58.016  0.00  0.00    +0.000 C 
ATOM     24  O   UNK A   1      -1.266  48.769  58.315  0.00  0.00    +0.000 OA
ATOM     25  H   UNK A   1      -3.093  48.831  58.979  0.00  0.00    +0.000 HD
ATOM     26  H   UNK A   1      -4.938  51.482  61.274  0.00  0.00    +0.000 HD
ATOM     27  H   ASN A   3      -1.672  50.490  62.993  0.00  0.00    +0.000 HD
ATOM     28  H   ASN A   3       1.656  53.324  60.842  0.00  0.00    +0.000 HD
ENDROOT
BRANCH  11  29
ATOM     29  C   UNK A   1      -2.902  49.995  65.316  0.00  0.00    +0.000 C 
ATOM     30  O   UNK A   1      -3.392  49.895  66.436  0.00  0.00    +0.000 OA
BRANCH  29  31
ATOM     31  O   UNK A   1      -2.424  48.936  64.629  0.00  0.00    +0.000 OA
ATOM     32  H   UNK A   1      -1.887  49.159  63.847  0.00  0.00    +0.000 HD
ENDBRANCH  29  31
ENDBRANCH  11  29
BRANCH  16  33
ATOM     33  C   ASN A   3      -0.761  53.485  61.989  0.00  0.00    +0.000 C 
ATOM     34  O   ASN A   3      -1.961  53.458  61.735  0.00  0.00    +0.000 OA
BRANCH  33  35
ATOM     35  OXT ASN A   3      -0.189  54.635  62.398  0.00  0.00    +0.000 OA
ATOM     36  HXT ASN A   3      -0.461  55.504  62.040  0.00  0.00    +0.000 HD
ENDBRANCH  33  35
ENDBRANCH  16  33
BRANCH   1  37
ATOM     37  C   UNK A   1      -2.904  52.064  58.332  0.00  0.00    +0.000 C 
BRANCH  37  38
ATOM     38  C   UNK A   1      -3.750  53.068  57.543  0.00  0.00    +0.000 C 
BRANCH  38  39
ATOM     39  C   UNK A   1      -3.083  54.420  57.256  0.00  0.00    +0.000 C 
BRANCH  39  47
ATOM     40  C   UNK A   1       3.039  56.048  58.868  0.00  0.00    +0.000 C 
ATOM     41  N   UNK A   1       1.755  55.574  58.402  0.00  0.00    +0.000 N 
ATOM     42  C   UNK A   1       0.639  55.852  59.159  0.00  0.00    +0.000 C 
ATOM     43  O   UNK A   1       0.696  56.496  60.203  0.00  0.00    +0.000 OA
ATOM     44  N   UNK A   1      -0.529  55.361  58.614  0.00  0.00    +0.000 N 
ATOM     45  C   UNK A   1      -1.785  55.561  59.127  0.00  0.00    +0.000 C 
ATOM     46  N   UNK A   1      -1.979  56.196  60.233  0.00  0.00    +0.000 NA
ATOM     47  N   UNK A   1      -2.896  55.115  58.502  0.00  0.00    +0.000 N 
ATOM     48  H   UNK A   1       1.747  54.736  57.841  0.00  0.00    +0.000 HD
ATOM     49  H   UNK A   1      -0.471  54.930  57.710  0.00  0.00    +0.000 HD
ATOM     50  H   UNK A   1      -1.062  56.497  60.608  0.00  0.00    +0.000 HD
ATOM     51  H   UNK A   1      -3.732  55.455  58.977  0.00  0.00    +0.000 HD
ENDBRANCH  39  47
ENDBRANCH  38  39
ENDBRANCH  37  38
ENDBRANCH   1  37
BRANCH  20  52
ATOM     52  CB  PHE A   2       1.840  49.604  58.584  0.00  0.00    +0.000 C 
BRANCH  52  53
ATOM     53  CG  PHE A   2       2.941  49.528  59.616  0.00  0.00    +0.000 A 
ATOM     54  CD1 PHE A   2       4.270  49.784  59.248  0.00  0.00    +0.000 A 
ATOM     55  CE1 PHE A   2       5.310  49.527  60.139  0.00  0.00    +0.000 A 
ATOM     56  CZ  PHE A   2       5.029  49.060  61.420  0.00  0.00    +0.000 A 
ATOM     57  CE2 PHE A   2       3.706  48.889  61.826  0.00  0.00    +0.000 A 
ATOM     58  CD2 PHE A   2       2.664  49.123  60.928  0.00  0.00    +0.000 A 
ENDBRANCH  52  53
ENDBRANCH  20  52
TORSDOF 10
ENDMDL
MODEL 5
REMARK VINA RESULT:      -7.6      2.238      3.860
REMARK  Name = CHEMBL197199-4500
REMARK  13 active torsions:
REMARK  status: ('A' for Active; 'I' for Inactive)
REMARK    1  A    between atoms: C_1  and  N_2
REMARK    2  A    between atoms: N_8  and  C_9
REMARK    3  A    between atoms: C_9  and  C_10
REMARK    4  A    between atoms: C_10  and  C_11
REMARK    5  A    between atoms: C_11  and  C_12
REMARK    6  A    between atoms: C_16  and  C_17
REMARK    7  A    between atoms: C_22  and  C_23
REMARK    8  A    between atoms: C_23  and  O_25
REMARK    9  A    between atoms: CA_30  and  C_31
REMARK   10  A    between atoms: C_31  and  OXT_33
REMARK   11  A    between atoms: CA_37  and  CB_38
REMARK   12  A    between atoms: CB_38  and  CG_39
REMARK   13  A    between atoms: N_45  and  C_46
REMARK                            x       y       z     vdW  Elec       q    Type
REMARK                         _______ _______ _______ _____ _____    ______ ____
ROOT
ATOM      1  C   UNK A   1      -0.517  50.062  65.291  0.00  0.00    +0.000 C 
ATOM      2  N   UNK A   1      -1.617  50.440  66.215  0.00  0.00    +0.000 N 
ATOM      3  C   UNK A   1      -2.304  49.626  67.080  0.00  0.00    +0.000 C 
ATOM      4  O   UNK A   1      -1.840  48.564  67.497  0.00  0.00    +0.000 OA
ATOM      5  C   UNK A   1      -3.819  49.952  67.232  0.00  0.00    +0.000 C 
ATOM      6  C   UNK A   1      -4.212  51.361  66.786  0.00  0.00    +0.000 C 
ATOM      7  N   UNK A   1      -4.492  48.956  66.380  0.00  0.00    +0.000 N 
ATOM      8  C   UNK A   1      -5.857  48.904  66.243  0.00  0.00    +0.000 C 
ATOM      9  O   UNK A   1      -6.641  49.489  66.978  0.00  0.00    +0.000 OA
ATOM     10  C   UNK A   1      -6.321  48.116  65.040  0.00  0.00    +0.000 C 
ATOM     11  C   UNK A   1      -7.035  48.974  63.988  0.00  0.00    +0.000 C 
ATOM     12  N   ASN A   3      -6.071  49.661  63.111  0.00  0.00    +0.000 N 
ATOM     13  CG  ASN A   3      -6.371  49.891  61.783  0.00  0.00    +0.000 C 
ATOM     14  OD1 ASN A   3      -7.447  49.585  61.267  0.00  0.00    +0.000 OA
ATOM     15  CB  ASN A   3      -5.197  50.357  60.932  0.00  0.00    +0.000 C 
ATOM     16  CA  ASN A   3      -3.895  49.717  61.408  0.00  0.00    +0.000 C 
ATOM     17  N   ASN A   3      -2.747  50.052  60.550  0.00  0.00    +0.000 N 
ATOM     18  C   PHE A   2      -1.557  50.693  60.779  0.00  0.00    +0.000 C 
ATOM     19  O   PHE A   2      -0.662  50.509  59.945  0.00  0.00    +0.000 OA
ATOM     20  CA  PHE A   2      -1.312  51.625  62.011  0.00  0.00    +0.000 C 
ATOM     21  N   PHE A   2      -0.341  51.028  62.966  0.00  0.00    +0.000 N 
ATOM     22  C   ACE A   0       1.075  51.011  62.602  0.00  0.00    +0.000 C 
ATOM     23  C   UNK A   1      -0.613  51.269  64.303  0.00  0.00    +0.000 C 
ATOM     24  O   UNK A   1      -1.046  52.365  64.683  0.00  0.00    +0.000 OA
ATOM     25  H   UNK A   1      -1.879  51.423  66.167  0.00  0.00    +0.000 HD
ATOM     26  H   UNK A   1      -3.995  48.075  66.266  0.00  0.00    +0.000 HD
ATOM     27  H   ASN A   3      -5.486  50.345  63.577  0.00  0.00    +0.000 HD
ATOM     28  H   ASN A   3      -2.669  49.515  59.691  0.00  0.00    +0.000 HD
ENDROOT
BRANCH  11  29
ATOM     29  C   UNK A   1      -7.966  50.063  64.539  0.00  0.00    +0.000 C 
ATOM     30  O   UNK A   1      -9.139  49.856  64.830  0.00  0.00    +0.000 OA
BRANCH  29  31
ATOM     31  O   UNK A   1      -7.366  51.259  64.720  0.00  0.00    +0.000 OA
ATOM     32  H   UNK A   1      -6.462  51.217  65.082  0.00  0.00    +0.000 HD
ENDBRANCH  29  31
ENDBRANCH  11  29
BRANCH  16  33
ATOM     33  C   ASN A   3      -4.024  48.182  61.580  0.00  0.00    +0.000 C 
ATOM     34  O   ASN A   3      -3.975  47.677  62.696  0.00  0.00    +0.000 OA
BRANCH  33  35
ATOM     35  OXT ASN A   3      -4.140  47.393  60.492  0.00  0.00    +0.000 OA
ATOM     36  HXT ASN A   3      -4.551  47.712  59.664  0.00  0.00    +0.000 HD
ENDBRANCH  33  35
ENDBRANCH  16  33
BRANCH   1  37
ATOM     37  C   UNK A   1      -0.813  48.693  64.646  0.00  0.00    +0.000 C 
BRANCH  37  38
ATOM     38  C   UNK A   1       0.225  47.570  64.739  0.00  0.00    +0.000 C 
BRANCH  38  39
ATOM     39  C   UNK A   1       1.552  47.944  65.414  0.00  0.00    +0.000 C 
BRANCH  39  47
ATOM     40  C   UNK A   1      -0.828  49.301  71.348  0.00  0.00    +0.000 C 
ATOM     41  N   UNK A   1      -0.323  49.169  70.000  0.00  0.00    +0.000 N 
ATOM     42  C   UNK A   1       0.404  48.044  69.680  0.00  0.00    +0.000 C 
ATOM     43  O   UNK A   1       0.626  47.151  70.492  0.00  0.00    +0.000 OA
ATOM     44  N   UNK A   1       0.826  48.020  68.366  0.00  0.00    +0.000 N 
ATOM     45  C   UNK A   1       1.501  46.985  67.773  0.00  0.00    +0.000 C 
ATOM     46  N   UNK A   1       1.865  45.937  68.433  0.00  0.00    +0.000 NA
ATOM     47  N   UNK A   1       1.819  46.993  66.460  0.00  0.00    +0.000 N 
ATOM     48  H   UNK A   1      -0.124  50.019  69.495  0.00  0.00    +0.000 HD
ATOM     49  H   UNK A   1       0.509  48.759  67.767  0.00  0.00    +0.000 HD
ATOM     50  H   UNK A   1       1.556  46.041  69.416  0.00  0.00    +0.000 HD
ATOM     51  H   UNK A   1       2.218  46.096  66.186  0.00  0.00    +0.000 HD
ENDBRANCH  39  47
ENDBRANCH  38  39
ENDBRANCH  37  38
ENDBRANCH   1  37
BRANCH  20  52
ATOM     52  CB  PHE A   2      -0.892  53.041  61.531  0.00  0.00    +0.000 C 
BRANCH  52  53
ATOM     53  CG  PHE A   2      -1.763  53.517  60.391  0.00  0.00    +0.000 A 
ATOM     54  CD1 PHE A   2      -1.179  53.945  59.190  0.00  0.00    +0.000 A 
ATOM     55  CE1 PHE A   2      -1.954  54.566  58.213  0.00  0.00    +0.000 A 
ATOM     56  CZ  PHE A   2      -3.324  54.720  58.405  0.00  0.00    +0.000 A 
ATOM     57  CE2 PHE A   2      -3.929  54.216  59.555  0.00  0.00    +0.000 A 
ATOM     58  CD2 PHE A   2      -3.152  53.615  60.546  0.00  0.00    +0.000 A 
ENDBRANCH  52  53
ENDBRANCH  20  52
TORSDOF 10
ENDMDL
MODEL 6
REMARK VINA RESULT:      -7.5      3.744      7.616
REMARK  Name = CHEMBL197199-4500
REMARK  13 active torsions:
REMARK  status: ('A' for Active; 'I' for Inactive)
REMARK    1  A    between atoms: C_1  and  N_2
REMARK    2  A    between atoms: N_8  and  C_9
REMARK    3  A    between atoms: C_9  and  C_10
REMARK    4  A    between atoms: C_10  and  C_11
REMARK    5  A    between atoms: C_11  and  C_12
REMARK    6  A    between atoms: C_16  and  C_17
REMARK    7  A    between atoms: C_22  and  C_23
REMARK    8  A    between atoms: C_23  and  O_25
REMARK    9  A    between atoms: CA_30  and  C_31
REMARK   10  A    between atoms: C_31  and  OXT_33
REMARK   11  A    between atoms: CA_37  and  CB_38
REMARK   12  A    between atoms: CB_38  and  CG_39
REMARK   13  A    between atoms: N_45  and  C_46
REMARK                            x       y       z     vdW  Elec       q    Type
REMARK                         _______ _______ _______ _____ _____    ______ ____
ROOT
ATOM      1  C   UNK A   1      -2.865  50.345  62.389  0.00  0.00    +0.000 C 
ATOM      2  N   UNK A   1      -3.209  49.076  61.695  0.00  0.00    +0.000 N 
ATOM      3  C   UNK A   1      -4.070  48.902  60.642  0.00  0.00    +0.000 C 
ATOM      4  O   UNK A   1      -4.367  49.817  59.874  0.00  0.00    +0.000 OA
ATOM      5  C   UNK A   1      -4.899  47.585  60.677  0.00  0.00    +0.000 C 
ATOM      6  C   UNK A   1      -4.324  46.497  61.586  0.00  0.00    +0.000 C 
ATOM      7  N   UNK A   1      -6.220  48.002  61.178  0.00  0.00    +0.000 N 
ATOM      8  C   UNK A   1      -7.256  47.118  61.353  0.00  0.00    +0.000 C 
ATOM      9  O   UNK A   1      -7.273  45.984  60.893  0.00  0.00    +0.000 OA
ATOM     10  C   UNK A   1      -8.360  47.638  62.245  0.00  0.00    +0.000 C 
ATOM     11  C   UNK A   1      -8.505  46.853  63.554  0.00  0.00    +0.000 C 
ATOM     12  N   ASN A   3      -7.535  47.309  64.565  0.00  0.00    +0.000 N 
ATOM     13  CG  ASN A   3      -7.864  47.303  65.906  0.00  0.00    +0.000 C 
ATOM     14  OD1 ASN A   3      -8.941  46.891  66.340  0.00  0.00    +0.000 OA
ATOM     15  CB  ASN A   3      -6.887  48.045  66.809  0.00  0.00    +0.000 C 
ATOM     16  CA  ASN A   3      -6.292  49.252  66.087  0.00  0.00    +0.000 C 
ATOM     17  N   ASN A   3      -5.424  50.064  66.953  0.00  0.00    +0.000 N 
ATOM     18  C   PHE A   2      -4.099  50.411  66.896  0.00  0.00    +0.000 C 
ATOM     19  O   PHE A   2      -3.753  51.384  67.579  0.00  0.00    +0.000 OA
ATOM     20  CA  PHE A   2      -3.048  49.635  66.036  0.00  0.00    +0.000 C 
ATOM     21  N   PHE A   2      -2.563  50.454  64.892  0.00  0.00    +0.000 N 
ATOM     22  C   ACE A   0      -1.639  51.553  65.164  0.00  0.00    +0.000 C 
ATOM     23  C   UNK A   1      -2.324  49.744  63.726  0.00  0.00    +0.000 C 
ATOM     24  O   UNK A   1      -1.820  48.614  63.754  0.00  0.00    +0.000 OA
ATOM     25  H   UNK A   1      -2.744  48.255  62.081  0.00  0.00    +0.000 HD
ATOM     26  H   UNK A   1      -6.481  48.963  60.969  0.00  0.00    +0.000 HD
ATOM     27  H   ASN A   3      -6.565  47.140  64.328  0.00  0.00    +0.000 HD
ATOM     28  H   ASN A   3      -5.902  50.705  67.580  0.00  0.00    +0.000 HD
ENDROOT
BRANCH  11  29
ATOM     29  C   UNK A   1      -8.327  45.333  63.441  0.00  0.00    +0.000 C 
ATOM     30  O   UNK A   1      -9.224  44.577  63.085  0.00  0.00    +0.000 OA
BRANCH  29  31
ATOM     31  O   UNK A   1      -7.078  44.904  63.725  0.00  0.00    +0.000 OA
ATOM     32  H   UNK A   1      -6.385  45.588  63.675  0.00  0.00    +0.000 HD
ENDBRANCH  29  31
ENDBRANCH  11  29
BRANCH  16  33
ATOM     33  C   ASN A   3      -7.380  50.131  65.419  0.00  0.00    +0.000 C 
ATOM     34  O   ASN A   3      -7.333  50.370  64.217  0.00  0.00    +0.000 OA
BRANCH  33  35
ATOM     35  OXT ASN A   3      -8.356  50.679  66.172  0.00  0.00    +0.000 OA
ATOM     36  HXT ASN A   3      -8.557  50.353  67.072  0.00  0.00    +0.000 HD
ENDBRANCH  33  35
ENDBRANCH  16  33
BRANCH   1  37
ATOM     37  C   UNK A   1      -4.126  51.217  62.553  0.00  0.00    +0.000 C 
BRANCH  37  38
ATOM     38  C   UNK A   1      -4.081  52.697  62.164  0.00  0.00    +0.000 C 
BRANCH  38  39
ATOM     39  C   UNK A   1      -4.899  53.086  60.925  0.00  0.00    +0.000 C 
BRANCH  39  47
ATOM     40  C   UNK A   1      -0.716  57.756  59.079  0.00  0.00    +0.000 C 
ATOM     41  N   UNK A   1      -1.722  56.846  59.578  0.00  0.00    +0.000 N 
ATOM     42  C   UNK A   1      -1.893  55.642  58.934  0.00  0.00    +0.000 C 
ATOM     43  O   UNK A   1      -1.217  55.311  57.965  0.00  0.00    +0.000 OA
ATOM     44  N   UNK A   1      -2.871  54.851  59.503  0.00  0.00    +0.000 N 
ATOM     45  C   UNK A   1      -3.189  53.579  59.102  0.00  0.00    +0.000 C 
ATOM     46  N   UNK A   1      -2.623  53.019  58.087  0.00  0.00    +0.000 NA
ATOM     47  N   UNK A   1      -4.108  52.830  59.752  0.00  0.00    +0.000 N 
ATOM     48  H   UNK A   1      -2.520  57.249  60.045  0.00  0.00    +0.000 HD
ATOM     49  H   UNK A   1      -3.297  55.181  60.349  0.00  0.00    +0.000 HD
ATOM     50  H   UNK A   1      -1.936  53.681  57.684  0.00  0.00    +0.000 HD
ATOM     51  H   UNK A   1      -4.124  51.883  59.374  0.00  0.00    +0.000 HD
ENDBRANCH  39  47
ENDBRANCH  38  39
ENDBRANCH  37  38
ENDBRANCH   1  37
BRANCH  20  52
ATOM     52  CB  PHE A   2      -1.895  49.121  66.941  0.00  0.00    +0.000 C 
BRANCH  52  53
ATOM     53  CG  PHE A   2      -2.264  47.821  67.618  0.00  0.00    +0.000 A 
ATOM     54  CD1 PHE A   2      -3.461  47.170  67.285  0.00  0.00    +0.000 A 
ATOM     55  CE1 PHE A   2      -3.904  46.084  68.037  0.00  0.00    +0.000 A 
ATOM     56  CZ  PHE A   2      -3.132  45.608  69.094  0.00  0.00    +0.000 A 
ATOM     57  CE2 PHE A   2      -1.898  46.192  69.375  0.00  0.00    +0.000 A 
ATOM     58  CD2 PHE A   2      -1.463  47.295  68.639  0.00  0.00    +0.000 A 
ENDBRANCH  52  53
ENDBRANCH  20  52
TORSDOF 10
ENDMDL
MODEL 7
REMARK VINA RESULT:      -7.5      1.630      2.258
REMARK  Name = CHEMBL197199-4500
REMARK  13 active torsions:
REMARK  status: ('A' for Active; 'I' for Inactive)
REMARK    1  A    between atoms: C_1  and  N_2
REMARK    2  A    between atoms: N_8  and  C_9
REMARK    3  A    between atoms: C_9  and  C_10
REMARK    4  A    between atoms: C_10  and  C_11
REMARK    5  A    between atoms: C_11  and  C_12
REMARK    6  A    between atoms: C_16  and  C_17
REMARK    7  A    between atoms: C_22  and  C_23
REMARK    8  A    between atoms: C_23  and  O_25
REMARK    9  A    between atoms: CA_30  and  C_31
REMARK   10  A    between atoms: C_31  and  OXT_33
REMARK   11  A    between atoms: CA_37  and  CB_38
REMARK   12  A    between atoms: CB_38  and  CG_39
REMARK   13  A    between atoms: N_45  and  C_46
REMARK                            x       y       z     vdW  Elec       q    Type
REMARK                         _______ _______ _______ _____ _____    ______ ____
ROOT
ATOM      1  C   UNK A   1      -0.624  50.393  64.717  0.00  0.00    +0.000 C 
ATOM      2  N   UNK A   1      -1.863  50.921  65.346  0.00  0.00    +0.000 N 
ATOM      3  C   UNK A   1      -2.801  50.225  66.066  0.00  0.00    +0.000 C 
ATOM      4  O   UNK A   1      -2.545  49.159  66.627  0.00  0.00    +0.000 OA
ATOM      5  C   UNK A   1      -4.273  50.683  65.850  0.00  0.00    +0.000 C 
ATOM      6  C   UNK A   1      -4.421  52.087  65.260  0.00  0.00    +0.000 C 
ATOM      7  N   UNK A   1      -4.829  49.691  64.914  0.00  0.00    +0.000 N 
ATOM      8  C   UNK A   1      -6.127  49.742  64.470  0.00  0.00    +0.000 C 
ATOM      9  O   UNK A   1      -6.997  50.436  64.976  0.00  0.00    +0.000 OA
ATOM     10  C   UNK A   1      -6.381  48.915  63.230  0.00  0.00    +0.000 C 
ATOM     11  C   UNK A   1      -6.755  49.756  62.004  0.00  0.00    +0.000 C 
ATOM     12  N   ASN A   3      -5.558  50.302  61.340  0.00  0.00    +0.000 N 
ATOM     13  CG  ASN A   3      -5.529  50.466  59.970  0.00  0.00    +0.000 C 
ATOM     14  OD1 ASN A   3      -6.486  50.215  59.235  0.00  0.00    +0.000 OA
ATOM     15  CB  ASN A   3      -4.156  50.776  59.390  0.00  0.00    +0.000 C 
ATOM     16  CA  ASN A   3      -3.060  50.066  60.182  0.00  0.00    +0.000 C 
ATOM     17  N   ASN A   3      -1.723  50.247  59.597  0.00  0.00    +0.000 N 
ATOM     18  C   PHE A   2      -0.560  50.803  60.063  0.00  0.00    +0.000 C 
ATOM     19  O   PHE A   2       0.479  50.491  59.467  0.00  0.00    +0.000 OA
ATOM     20  CA  PHE A   2      -0.510  51.793  61.273  0.00  0.00    +0.000 C 
ATOM     21  N   PHE A   2       0.161  51.183  62.453  0.00  0.00    +0.000 N 
ATOM     22  C   ACE A   0       1.614  51.027  62.425  0.00  0.00    +0.000 C 
ATOM     23  C   UNK A   1      -0.381  51.535  63.679  0.00  0.00    +0.000 C 
ATOM     24  O   UNK A   1      -0.783  52.685  63.897  0.00  0.00    +0.000 OA
ATOM     25  H   UNK A   1      -2.013  51.917  65.193  0.00  0.00    +0.000 HD
ATOM     26  H   UNK A   1      -4.405  48.767  64.959  0.00  0.00    +0.000 HD
ATOM     27  H   ASN A   3      -5.031  50.965  61.895  0.00  0.00    +0.000 HD
ATOM     28  H   ASN A   3      -1.504  49.650  58.804  0.00  0.00    +0.000 HD
ENDROOT
BRANCH  11  29
ATOM     29  C   UNK A   1      -7.679  50.952  62.274  0.00  0.00    +0.000 C 
ATOM     30  O   UNK A   1      -8.900  50.854  62.340  0.00  0.00    +0.000 OA
BRANCH  29  31
ATOM     31  O   UNK A   1      -7.026  52.115  62.480  0.00  0.00    +0.000 OA
ATOM     32  H   UNK A   1      -6.055  52.040  62.533  0.00  0.00    +0.000 HD
ENDBRANCH  29  31
ENDBRANCH  11  29
BRANCH  16  33
ATOM     33  C   ASN A   3      -3.369  48.561  60.391  0.00  0.00    +0.000 C 
ATOM     34  O   ASN A   3      -3.499  47.815  59.427  0.00  0.00    +0.000 OA
BRANCH  33  35
ATOM     35  OXT ASN A   3      -3.547  48.080  61.639  0.00  0.00    +0.000 OA
ATOM     36  HXT ASN A   3      -3.065  47.293  61.962  0.00  0.00    +0.000 HD
ENDBRANCH  33  35
ENDBRANCH  16  33
BRANCH   1  37
ATOM     37  C   UNK A   1      -0.896  49.013  64.087  0.00  0.00    +0.000 C 
BRANCH  37  38
ATOM     38  C   UNK A   1      -0.094  47.794  64.552  0.00  0.00    +0.000 C 
BRANCH  38  39
ATOM     39  C   UNK A   1       1.386  48.052  64.868  0.00  0.00    +0.000 C 
BRANCH  39  47
ATOM     40  C   UNK A   1       5.318  49.251  59.786  0.00  0.00    +0.000 C 
ATOM     41  N   UNK A   1       4.365  49.131  60.865  0.00  0.00    +0.000 N 
ATOM     42  C   UNK A   1       4.232  47.911  61.489  0.00  0.00    +0.000 C 
ATOM     43  O   UNK A   1       4.900  46.932  61.171  0.00  0.00    +0.000 OA
ATOM     44  N   UNK A   1       3.303  47.916  62.510  0.00  0.00    +0.000 N 
ATOM     45  C   UNK A   1       3.032  46.855  63.336  0.00  0.00    +0.000 C 
ATOM     46  N   UNK A   1       3.600  45.706  63.183  0.00  0.00    +0.000 NA
ATOM     47  N   UNK A   1       2.163  46.950  64.365  0.00  0.00    +0.000 N 
ATOM     48  H   UNK A   1       3.560  49.738  60.843  0.00  0.00    +0.000 HD
ATOM     49  H   UNK A   1       2.882  48.795  62.746  0.00  0.00    +0.000 HD
ATOM     50  H   UNK A   1       4.248  45.761  62.378  0.00  0.00    +0.000 HD
ATOM     51  H   UNK A   1       2.179  46.097  64.924  0.00  0.00    +0.000 HD
ENDBRANCH  39  47
ENDBRANCH  38  39
ENDBRANCH  37  38
ENDBRANCH   1  37
BRANCH  20  52
ATOM     52  CB  PHE A   2       0.140  53.134  60.837  0.00  0.00    +0.000 C 
BRANCH  52  53
ATOM     53  CG  PHE A   2      -0.787  53.930  59.946  0.00  0.00    +0.000 A 
ATOM     54  CD1 PHE A   2      -2.158  53.988  60.231  0.00  0.00    +0.000 A 
ATOM     55  CE1 PHE A   2      -3.045  54.550  59.315  0.00  0.00    +0.000 A 
ATOM     56  CZ  PHE A   2      -2.563  55.105  58.132  0.00  0.00    +0.000 A 
ATOM     57  CE2 PHE A   2      -1.193  55.134  57.882  0.00  0.00    +0.000 A 
ATOM     58  CD2 PHE A   2      -0.305  54.550  58.786  0.00  0.00    +0.000 A 
ENDBRANCH  52  53
ENDBRANCH  20  52
TORSDOF 10
ENDMDL
MODEL 8
REMARK VINA RESULT:      -7.3      3.464      7.774
REMARK  Name = CHEMBL197199-4500
REMARK  13 active torsions:
REMARK  status: ('A' for Active; 'I' for Inactive)
REMARK    1  A    between atoms: C_1  and  N_2
REMARK    2  A    between atoms: N_8  and  C_9
REMARK    3  A    between atoms: C_9  and  C_10
REMARK    4  A    between atoms: C_10  and  C_11
REMARK    5  A    between atoms: C_11  and  C_12
REMARK    6  A    between atoms: C_16  and  C_17
REMARK    7  A    between atoms: C_22  and  C_23
REMARK    8  A    between atoms: C_23  and  O_25
REMARK    9  A    between atoms: CA_30  and  C_31
REMARK   10  A    between atoms: C_31  and  OXT_33
REMARK   11  A    between atoms: CA_37  and  CB_38
REMARK   12  A    between atoms: CB_38  and  CG_39
REMARK   13  A    between atoms: N_45  and  C_46
REMARK                            x       y       z     vdW  Elec       q    Type
REMARK                         _______ _______ _______ _____ _____    ______ ____
ROOT
ATOM      1  C   UNK A   1      -1.602  51.427  57.952  0.00  0.00    +0.000 C 
ATOM      2  N   UNK A   1      -2.090  50.024  57.899  0.00  0.00    +0.000 N 
ATOM      3  C   UNK A   1      -3.319  49.578  57.483  0.00  0.00    +0.000 C 
ATOM      4  O   UNK A   1      -4.038  50.232  56.727  0.00  0.00    +0.000 OA
ATOM      5  C   UNK A   1      -3.889  48.370  58.283  0.00  0.00    +0.000 C 
ATOM      6  C   UNK A   1      -2.842  47.581  59.072  0.00  0.00    +0.000 C 
ATOM      7  N   UNK A   1      -4.859  48.974  59.212  0.00  0.00    +0.000 N 
ATOM      8  C   UNK A   1      -5.591  48.229  60.102  0.00  0.00    +0.000 C 
ATOM      9  O   UNK A   1      -5.699  47.011  60.050  0.00  0.00    +0.000 OA
ATOM     10  C   UNK A   1      -6.200  49.040  61.223  0.00  0.00    +0.000 C 
ATOM     11  C   UNK A   1      -5.632  48.692  62.604  0.00  0.00    +0.000 C 
ATOM     12  N   ASN A   3      -4.357  49.389  62.852  0.00  0.00    +0.000 N 
ATOM     13  CG  ASN A   3      -4.019  49.800  64.126  0.00  0.00    +0.000 C 
ATOM     14  OD1 ASN A   3      -4.718  49.585  65.118  0.00  0.00    +0.000 OA
ATOM     15  CB  ASN A   3      -2.820  50.737  64.200  0.00  0.00    +0.000 C 
ATOM     16  CA  ASN A   3      -2.765  51.644  62.973  0.00  0.00    +0.000 C 
ATOM     17  N   ASN A   3      -1.686  52.641  63.048  0.00  0.00    +0.000 N 
ATOM     18  C   PHE A   2      -0.587  52.898  62.270  0.00  0.00    +0.000 C 
ATOM     19  O   PHE A   2      -0.069  54.015  62.396  0.00  0.00    +0.000 OA
ATOM     20  CA  PHE A   2       0.017  51.854  61.274  0.00  0.00    +0.000 C 
ATOM     21  N   PHE A   2      -0.179  52.270  59.858  0.00  0.00    +0.000 N 
ATOM     22  C   ACE A   0       0.640  53.360  59.331  0.00  0.00    +0.000 C 
ATOM     23  C   UNK A   1      -0.437  51.233  58.976  0.00  0.00    +0.000 C 
ATOM     24  O   UNK A   1       0.140  50.143  59.080  0.00  0.00    +0.000 OA
ATOM     25  H   UNK A   1      -1.414  49.338  58.231  0.00  0.00    +0.000 HD
ATOM     26  H   UNK A   1      -5.289  49.839  58.889  0.00  0.00    +0.000 HD
ATOM     27  H   ASN A   3      -3.598  49.115  62.240  0.00  0.00    +0.000 HD
ATOM     28  H   ASN A   3      -1.882  53.461  63.616  0.00  0.00    +0.000 HD
ENDROOT
BRANCH  11  29
ATOM     29  C   UNK A   1      -5.364  47.202  62.857  0.00  0.00    +0.000 C 
ATOM     30  O   UNK A   1      -6.189  46.449  63.363  0.00  0.00    +0.000 OA
BRANCH  29  31
ATOM     31  O   UNK A   1      -4.154  46.781  62.430  0.00  0.00    +0.000 OA
ATOM     32  H   UNK A   1      -4.173  46.166  61.674  0.00  0.00    +0.000 HD
ENDBRANCH  29  31
ENDBRANCH  11  29
BRANCH  16  33
ATOM     33  C   ASN A   3      -4.127  52.328  62.687  0.00  0.00    +0.000 C 
ATOM     34  O   ASN A   3      -4.341  52.853  61.600  0.00  0.00    +0.000 OA
BRANCH  33  35
ATOM     35  OXT ASN A   3      -5.062  52.390  63.657  0.00  0.00    +0.000 OA
ATOM     36  HXT ASN A   3      -5.882  52.913  63.550  0.00  0.00    +0.000 HD
ENDBRANCH  33  35
ENDBRANCH  16  33
BRANCH   1  37
ATOM     37  C   UNK A   1      -2.726  52.361  58.443  0.00  0.00    +0.000 C 
BRANCH  37  38
ATOM     38  C   UNK A   1      -3.100  53.596  57.619  0.00  0.00    +0.000 C 
BRANCH  38  39
ATOM     39  C   UNK A   1      -3.637  54.792  58.417  0.00  0.00    +0.000 C 
BRANCH  39  47
ATOM     40  C   UNK A   1       1.443  57.626  61.398  0.00  0.00    +0.000 C 
ATOM     41  N   UNK A   1       0.292  56.916  60.887  0.00  0.00    +0.000 N 
ATOM     42  C   UNK A   1      -0.315  57.387  59.745  0.00  0.00    +0.000 C 
ATOM     43  O   UNK A   1       0.092  58.375  59.142  0.00  0.00    +0.000 OA
ATOM     44  N   UNK A   1      -1.395  56.625  59.345  0.00  0.00    +0.000 N 
ATOM     45  C   UNK A   1      -2.127  56.832  58.204  0.00  0.00    +0.000 C 
ATOM     46  N   UNK A   1      -1.897  57.827  57.415  0.00  0.00    +0.000 NA
ATOM     47  N   UNK A   1      -3.126  56.003  57.832  0.00  0.00    +0.000 N 
ATOM     48  H   UNK A   1      -0.279  56.419  61.554  0.00  0.00    +0.000 HD
ATOM     49  H   UNK A   1      -1.583  55.785  59.860  0.00  0.00    +0.000 HD
ATOM     50  H   UNK A   1      -1.108  58.378  57.796  0.00  0.00    +0.000 HD
ATOM     51  H   UNK A   1      -3.474  56.259  56.909  0.00  0.00    +0.000 HD
ENDBRANCH  39  47
ENDBRANCH  38  39
ENDBRANCH  37  38
ENDBRANCH   1  37
BRANCH  20  52
ATOM     52  CB  PHE A   2       1.507  51.588  61.622  0.00  0.00    +0.000 C 
BRANCH  52  53
ATOM     53  CG  PHE A   2       1.648  50.442  62.598  0.00  0.00    +0.000 A 
ATOM     54  CD1 PHE A   2       2.681  49.508  62.442  0.00  0.00    +0.000 A 
ATOM     55  CE1 PHE A   2       2.703  48.347  63.212  0.00  0.00    +0.000 A 
ATOM     56  CZ  PHE A   2       1.722  48.134  64.178  0.00  0.00    +0.000 A 
ATOM     57  CE2 PHE A   2       0.743  49.100  64.402  0.00  0.00    +0.000 A 
ATOM     58  CD2 PHE A   2       0.705  50.252  63.616  0.00  0.00    +0.000 A 
ENDBRANCH  52  53
ENDBRANCH  20  52
TORSDOF 10
ENDMDL
MODEL 9
REMARK VINA RESULT:      -7.0      3.123      7.318
REMARK  Name = CHEMBL197199-4500
REMARK  13 active torsions:
REMARK  status: ('A' for Active; 'I' for Inactive)
REMARK    1  A    between atoms: C_1  and  N_2
REMARK    2  A    between atoms: N_8  and  C_9
REMARK    3  A    between atoms: C_9  and  C_10
REMARK    4  A    between atoms: C_10  and  C_11
REMARK    5  A    between atoms: C_11  and  C_12
REMARK    6  A    between atoms: C_16  and  C_17
REMARK    7  A    between atoms: C_22  and  C_23
REMARK    8  A    between atoms: C_23  and  O_25
REMARK    9  A    between atoms: CA_30  and  C_31
REMARK   10  A    between atoms: C_31  and  OXT_33
REMARK   11  A    between atoms: CA_37  and  CB_38
REMARK   12  A    between atoms: CB_38  and  CG_39
REMARK   13  A    between atoms: N_45  and  C_46
REMARK                            x       y       z     vdW  Elec       q    Type
REMARK                         _______ _______ _______ _____ _____    ______ ____
ROOT
ATOM      1  C   UNK A   1      -2.894  49.474  67.330  0.00  0.00    +0.000 C 
ATOM      2  N   UNK A   1      -1.782  49.215  66.379  0.00  0.00    +0.000 N 
ATOM      3  C   UNK A   1      -0.790  50.079  65.991  0.00  0.00    +0.000 C 
ATOM      4  O   UNK A   1      -0.453  51.047  66.674  0.00  0.00    +0.000 OA
ATOM      5  C   UNK A   1      -0.356  49.961  64.501  0.00  0.00    +0.000 C 
ATOM      6  C   UNK A   1      -0.739  48.640  63.831  0.00  0.00    +0.000 C 
ATOM      7  N   UNK A   1      -1.047  51.075  63.831  0.00  0.00    +0.000 N 
ATOM      8  C   UNK A   1      -0.920  51.322  62.487  0.00  0.00    +0.000 C 
ATOM      9  O   UNK A   1      -0.058  50.821  61.778  0.00  0.00    +0.000 OA
ATOM     10  C   UNK A   1      -2.000  52.217  61.925  0.00  0.00    +0.000 C 
ATOM     11  C   UNK A   1      -2.909  51.512  60.910  0.00  0.00    +0.000 C 
ATOM     12  N   ASN A   3      -3.965  50.736  61.584  0.00  0.00    +0.000 N 
ATOM     13  CG  ASN A   3      -5.214  50.606  61.010  0.00  0.00    +0.000 C 
ATOM     14  OD1 ASN A   3      -5.510  51.080  59.912  0.00  0.00    +0.000 OA
ATOM     15  CB  ASN A   3      -6.281  50.018  61.924  0.00  0.00    +0.000 C 
ATOM     16  CA  ASN A   3      -6.053  50.449  63.371  0.00  0.00    +0.000 C 
ATOM     17  N   ASN A   3      -7.119  49.996  64.277  0.00  0.00    +0.000 N 
ATOM     18  C   PHE A   2      -7.132  49.186  65.383  0.00  0.00    +0.000 C 
ATOM     19  O   PHE A   2      -8.119  49.279  66.124  0.00  0.00    +0.000 OA
ATOM     20  CA  PHE A   2      -5.985  48.177  65.717  0.00  0.00    +0.000 C 
ATOM     21  N   PHE A   2      -5.224  48.593  66.927  0.00  0.00    +0.000 N 
ATOM     22  C   ACE A   0      -5.852  48.428  68.236  0.00  0.00    +0.000 C 
ATOM     23  C   UNK A   1      -3.863  48.336  66.877  0.00  0.00    +0.000 C 
ATOM     24  O   UNK A   1      -3.424  47.296  66.369  0.00  0.00    +0.000 OA
ATOM     25  H   UNK A   1      -1.794  48.280  65.974  0.00  0.00    +0.000 HD
ATOM     26  H   UNK A   1      -1.241  51.882  64.420  0.00  0.00    +0.000 HD
ATOM     27  H   ASN A   3      -3.630  49.958  62.140  0.00  0.00    +0.000 HD
ATOM     28  H   ASN A   3      -7.970  50.552  64.270  0.00  0.00    +0.000 HD
ENDROOT
BRANCH  11  29
ATOM     29  C   UNK A   1      -2.206  50.541  59.951  0.00  0.00    +0.000 C 
ATOM     30  O   UNK A   1      -2.406  49.331  59.958  0.00  0.00    +0.000 OA
BRANCH  29  31
ATOM     31  O   UNK A   1      -1.382  51.143  59.067  0.00  0.00    +0.000 OA
ATOM     32  H   UNK A   1      -1.829  51.666  58.376  0.00  0.00    +0.000 HD
ENDBRANCH  29  31
ENDBRANCH  11  29
BRANCH  16  33
ATOM     33  C   ASN A   3      -5.837  51.979  63.499  0.00  0.00    +0.000 C 
ATOM     34  O   ASN A   3      -5.250  52.443  64.472  0.00  0.00    +0.000 OA
BRANCH  33  35
ATOM     35  OXT ASN A   3      -6.339  52.809  62.562  0.00  0.00    +0.000 OA
ATOM     36  HXT ASN A   3      -5.873  52.978  61.719  0.00  0.00    +0.000 HD
ENDBRANCH  33  35
ENDBRANCH  16  33
BRANCH   1  37
ATOM     37  C   UNK A   1      -3.449  50.898  67.120  0.00  0.00    +0.000 C 
BRANCH  37  38
ATOM     38  C   UNK A   1      -3.337  51.930  68.245  0.00  0.00    +0.000 C 
BRANCH  38  39
ATOM     39  C   UNK A   1      -2.015  51.924  69.026  0.00  0.00    +0.000 C 
BRANCH  39  47
ATOM     40  C   UNK A   1       2.027  46.831  68.361  0.00  0.00    +0.000 C 
ATOM     41  N   UNK A   1       1.160  47.987  68.340  0.00  0.00    +0.000 N 
ATOM     42  C   UNK A   1       0.263  48.153  69.371  0.00  0.00    +0.000 C 
ATOM     43  O   UNK A   1       0.182  47.363  70.307  0.00  0.00    +0.000 OA
ATOM     44  N   UNK A   1      -0.503  49.295  69.252  0.00  0.00    +0.000 N 
ATOM     45  C   UNK A   1      -1.417  49.731  70.176  0.00  0.00    +0.000 C 
ATOM     46  N   UNK A   1      -1.690  49.056  71.241  0.00  0.00    +0.000 NA
ATOM     47  N   UNK A   1      -2.081  50.899  70.034  0.00  0.00    +0.000 N 
ATOM     48  H   UNK A   1       0.918  48.368  67.438  0.00  0.00    +0.000 HD
ATOM     49  H   UNK A   1      -0.289  49.917  68.495  0.00  0.00    +0.000 HD
ATOM     50  H   UNK A   1      -1.115  48.195  71.244  0.00  0.00    +0.000 HD
ATOM     51  H   UNK A   1      -2.629  51.101  70.869  0.00  0.00    +0.000 HD
ENDBRANCH  39  47
ENDBRANCH  38  39
ENDBRANCH  37  38
ENDBRANCH   1  37
BRANCH  20  52
ATOM     52  CB  PHE A   2      -6.558  46.738  65.831  0.00  0.00    +0.000 C 
BRANCH  52  53
ATOM     53  CG  PHE A   2      -6.884  46.167  64.471  0.00  0.00    +0.000 A 
ATOM     54  CD1 PHE A   2      -7.862  45.170  64.343  0.00  0.00    +0.000 A 
ATOM     55  CE1 PHE A   2      -8.031  44.500  63.133  0.00  0.00    +0.000 A 
ATOM     56  CZ  PHE A   2      -7.262  44.856  62.028  0.00  0.00    +0.000 A 
ATOM     57  CE2 PHE A   2      -6.352  45.907  62.120  0.00  0.00    +0.000 A 
ATOM     58  CD2 PHE A   2      -6.163  46.563  63.338  0.00  0.00    +0.000 A 
ENDBRANCH  52  53
ENDBRANCH  20  52
TORSDOF 10
ENDMDL
