MODEL 1
REMARK VINA RESULT:      -8.3      0.000      0.000
REMARK  Name = CHEMBL4084148-2025
REMARK  5 active torsions:
REMARK  status: ('A' for Active; 'I' for Inactive)
REMARK    1  A    between atoms: C_1  and  N_2
REMARK    2  A    between atoms: N_2  and  C_3
REMARK    3  A    between atoms: N_2  and  C_13
REMARK    4  A    between atoms: C_3  and  C_4
REMARK    5  A    between atoms: C_4  and  C_5
REMARK                            x       y       z     vdW  Elec       q    Type
REMARK                         _______ _______ _______ _____ _____    ______ ____
ROOT
ATOM      1  C   UNL     1      -0.465  49.338  64.843  0.00  0.00    +0.000 C 
ATOM      2  C   UNL     1      -0.230  47.818  64.726  0.00  0.00    +0.000 C 
ATOM      3  C   UNL     1       1.234  47.432  64.890  0.00  0.00    +0.000 C 
ATOM      4  N   UNL     1       2.020  48.096  63.866  0.00  0.00    +0.000 N 
ATOM      5  C   UNL     1       2.907  47.440  63.080  0.00  0.00    +0.000 A 
ATOM      6  N   UNL     1       3.432  47.820  61.932  0.00  0.00    +0.000 NA
ATOM      7  C   UNL     1       4.152  46.733  61.543  0.00  0.00    +0.000 A 
ATOM      8  N   UNL     1       4.748  46.758  60.356  0.00  0.00    +0.000 N 
ATOM      9  N   UNL     1       4.199  45.726  62.409  0.00  0.00    +0.000 NA
ATOM     10  N   UNL     1       3.404  46.197  63.380  0.00  0.00    +0.000 N 
ATOM     11  C   UNL     1       1.894  49.550  63.799  0.00  0.00    +0.000 C 
ATOM     12  C   UNL     1       0.418  49.953  63.714  0.00  0.00    +0.000 C 
ATOM     13  H   UNL     1       4.864  47.665  59.929  0.00  0.00    +0.000 HD
ATOM     14  H   UNL     1       5.494  46.098  60.197  0.00  0.00    +0.000 HD
ATOM     15  H   UNL     1       3.249  45.640  64.208  0.00  0.00    +0.000 HD
ENDROOT
BRANCH   1  17
ATOM     16  C   UNL     1      -0.137  51.417  66.094  0.00  0.00    +0.000 C 
ATOM     17  N   UNL     1      -0.241  49.942  66.193  0.00  0.00    +0.000 NA
BRANCH  17  18
ATOM     18  C   UNL     1      -1.301  49.673  67.211  0.00  0.00    +0.000 C 
BRANCH  18  19
ATOM     19  C   UNL     1      -1.319  48.337  67.994  0.00  0.00    +0.000 C 
BRANCH  19  20
ATOM     20  C   UNL     1      -0.117  47.993  68.854  0.00  0.00    +0.000 A 
ATOM     21  C   UNL     1       0.915  47.173  68.362  0.00  0.00    +0.000 A 
ATOM     22  C   UNL     1       1.967  46.761  69.182  0.00  0.00    +0.000 A 
ATOM     23  C   UNL     1       2.036  47.215  70.492  0.00  0.00    +0.000 A 
ATOM     24 CL   UNL     1       3.328  46.702  71.503  0.00  0.00    +0.000 Cl
ATOM     25  C   UNL     1       1.062  48.074  70.992  0.00  0.00    +0.000 A 
ATOM     26  C   UNL     1      -0.010  48.458  70.180  0.00  0.00    +0.000 A 
ATOM     27 CL   UNL     1      -1.207  49.485  70.888  0.00  0.00    +0.000 Cl
ENDBRANCH  19  20
ENDBRANCH  18  19
ENDBRANCH  17  18
ENDBRANCH   1  17
TORSDOF 4
ENDMDL
MODEL 2
REMARK VINA RESULT:      -8.3      5.324      6.923
REMARK  Name = CHEMBL4084148-2025
REMARK  5 active torsions:
REMARK  status: ('A' for Active; 'I' for Inactive)
REMARK    1  A    between atoms: C_1  and  N_2
REMARK    2  A    between atoms: N_2  and  C_3
REMARK    3  A    between atoms: N_2  and  C_13
REMARK    4  A    between atoms: C_3  and  C_4
REMARK    5  A    between atoms: C_4  and  C_5
REMARK                            x       y       z     vdW  Elec       q    Type
REMARK                         _______ _______ _______ _____ _____    ______ ____
ROOT
ATOM      1  C   UNL     1      -1.622  50.061  68.790  0.00  0.00    +0.000 C 
ATOM      2  C   UNL     1      -0.312  49.545  68.160  0.00  0.00    +0.000 C 
ATOM      3  C   UNL     1       0.040  48.131  68.605  0.00  0.00    +0.000 C 
ATOM      4  N   UNL     1       0.187  48.109  70.049  0.00  0.00    +0.000 N 
ATOM      5  C   UNL     1       1.261  47.566  70.670  0.00  0.00    +0.000 A 
ATOM      6  N   UNL     1       1.684  47.753  71.905  0.00  0.00    +0.000 NA
ATOM      7  C   UNL     1       2.854  47.059  71.942  0.00  0.00    +0.000 A 
ATOM      8  N   UNL     1       3.591  47.118  73.046  0.00  0.00    +0.000 N 
ATOM      9  N   UNL     1       3.155  46.366  70.849  0.00  0.00    +0.000 NA
ATOM     10  N   UNL     1       2.128  46.699  70.054  0.00  0.00    +0.000 N 
ATOM     11  C   UNL     1      -0.952  48.604  70.820  0.00  0.00    +0.000 C 
ATOM     12  C   UNL     1      -1.365  49.994  70.326  0.00  0.00    +0.000 C 
ATOM     13  H   UNL     1       3.127  47.441  73.881  0.00  0.00    +0.000 HD
ATOM     14  H   UNL     1       4.285  46.398  73.179  0.00  0.00    +0.000 HD
ATOM     15  H   UNL     1       2.072  46.305  69.126  0.00  0.00    +0.000 HD
ENDROOT
BRANCH   1  17
ATOM     16  C   UNL     1      -4.053  50.262  68.583  0.00  0.00    +0.000 C 
ATOM     17  N   UNL     1      -2.882  49.385  68.350  0.00  0.00    +0.000 NA
BRANCH  17  18
ATOM     18  C   UNL     1      -2.942  48.994  66.910  0.00  0.00    +0.000 C 
BRANCH  18  19
ATOM     19  C   UNL     1      -3.228  47.527  66.503  0.00  0.00    +0.000 C 
BRANCH  19  20
ATOM     20  C   UNL     1      -3.778  46.585  67.558  0.00  0.00    +0.000 A 
ATOM     21  C   UNL     1      -2.978  46.151  68.631  0.00  0.00    +0.000 A 
ATOM     22  C   UNL     1      -3.439  45.199  69.542  0.00  0.00    +0.000 A 
ATOM     23  C   UNL     1      -4.734  44.711  69.430  0.00  0.00    +0.000 A 
ATOM     24 CL   UNL     1      -5.299  43.534  70.548  0.00  0.00    +0.000 Cl
ATOM     25  C   UNL     1      -5.571  45.163  68.414  0.00  0.00    +0.000 A 
ATOM     26  C   UNL     1      -5.096  46.091  67.482  0.00  0.00    +0.000 A 
ATOM     27 CL   UNL     1      -6.178  46.565  66.220  0.00  0.00    +0.000 Cl
ENDBRANCH  19  20
ENDBRANCH  18  19
ENDBRANCH  17  18
ENDBRANCH   1  17
TORSDOF 4
ENDMDL
MODEL 3
REMARK VINA RESULT:      -8.1      5.317      8.010
REMARK  Name = CHEMBL4084148-2025
REMARK  5 active torsions:
REMARK  status: ('A' for Active; 'I' for Inactive)
REMARK    1  A    between atoms: C_1  and  N_2
REMARK    2  A    between atoms: N_2  and  C_3
REMARK    3  A    between atoms: N_2  and  C_13
REMARK    4  A    between atoms: C_3  and  C_4
REMARK    5  A    between atoms: C_4  and  C_5
REMARK                            x       y       z     vdW  Elec       q    Type
REMARK                         _______ _______ _______ _____ _____    ______ ____
ROOT
ATOM      1  C   UNL     1      -3.530  47.669  68.247  0.00  0.00    +0.000 C 
ATOM      2  C   UNL     1      -2.916  46.705  69.284  0.00  0.00    +0.000 C 
ATOM      3  C   UNL     1      -3.381  45.266  69.100  0.00  0.00    +0.000 C 
ATOM      4  N   UNL     1      -4.826  45.213  69.227  0.00  0.00    +0.000 N 
ATOM      5  C   UNL     1      -5.460  44.327  70.031  0.00  0.00    +0.000 A 
ATOM      6  N   UNL     1      -6.696  44.366  70.491  0.00  0.00    +0.000 NA
ATOM      7  C   UNL     1      -6.751  43.297  71.331  0.00  0.00    +0.000 A 
ATOM      8  N   UNL     1      -7.858  43.101  72.037  0.00  0.00    +0.000 N 
ATOM      9  N   UNL     1      -5.668  42.526  71.362  0.00  0.00    +0.000 NA
ATOM     10  N   UNL     1      -4.862  43.197  70.527  0.00  0.00    +0.000 N 
ATOM     11  C   UNL     1      -5.583  46.096  68.342  0.00  0.00    +0.000 C 
ATOM     12  C   UNL     1      -5.069  47.535  68.460  0.00  0.00    +0.000 C 
ATOM     13  H   UNL     1      -8.686  43.582  71.720  0.00  0.00    +0.000 HD
ATOM     14  H   UNL     1      -8.005  42.181  72.424  0.00  0.00    +0.000 HD
ATOM     15  H   UNL     1      -3.938  42.836  70.334  0.00  0.00    +0.000 HD
ENDROOT
BRANCH   1  17
ATOM     16  C   UNL     1      -3.897  48.334  65.920  0.00  0.00    +0.000 C 
ATOM     17  N   UNL     1      -3.090  47.487  66.829  0.00  0.00    +0.000 NA
BRANCH  17  18
ATOM     18  C   UNL     1      -1.663  47.822  66.543  0.00  0.00    +0.000 C 
BRANCH  18  19
ATOM     19  C   UNL     1      -0.918  48.884  67.389  0.00  0.00    +0.000 C 
BRANCH  19  20
ATOM     20  C   UNL     1       0.111  48.406  68.397  0.00  0.00    +0.000 A 
ATOM     21  C   UNL     1       1.204  47.614  67.996  0.00  0.00    +0.000 A 
ATOM     22  C   UNL     1       2.091  47.077  68.930  0.00  0.00    +0.000 A 
ATOM     23  C   UNL     1       1.936  47.376  70.277  0.00  0.00    +0.000 A 
ATOM     24 CL   UNL     1       3.025  46.709  71.427  0.00  0.00    +0.000 Cl
ATOM     25  C   UNL     1       0.899  48.203  70.700  0.00  0.00    +0.000 A 
ATOM     26  C   UNL     1      -0.009  48.712  69.766  0.00  0.00    +0.000 A 
ATOM     27 CL   UNL     1      -1.299  49.690  70.374  0.00  0.00    +0.000 Cl
ENDBRANCH  19  20
ENDBRANCH  18  19
ENDBRANCH  17  18
ENDBRANCH   1  17
TORSDOF 4
ENDMDL
MODEL 4
REMARK VINA RESULT:      -8.0      4.796      7.036
REMARK  Name = CHEMBL4084148-2025
REMARK  5 active torsions:
REMARK  status: ('A' for Active; 'I' for Inactive)
REMARK    1  A    between atoms: C_1  and  N_2
REMARK    2  A    between atoms: N_2  and  C_3
REMARK    3  A    between atoms: N_2  and  C_13
REMARK    4  A    between atoms: C_3  and  C_4
REMARK    5  A    between atoms: C_4  and  C_5
REMARK                            x       y       z     vdW  Elec       q    Type
REMARK                         _______ _______ _______ _____ _____    ______ ____
ROOT
ATOM      1  C   UNL     1      -1.369  49.796  68.323  0.00  0.00    +0.000 C 
ATOM      2  C   UNL     1       0.056  49.394  67.891  0.00  0.00    +0.000 C 
ATOM      3  C   UNL     1       0.454  48.008  68.383  0.00  0.00    +0.000 C 
ATOM      4  N   UNL     1       0.391  47.981  69.833  0.00  0.00    +0.000 N 
ATOM      5  C   UNL     1       1.405  47.519  70.603  0.00  0.00    +0.000 A 
ATOM      6  N   UNL     1       1.628  47.725  71.886  0.00  0.00    +0.000 NA
ATOM      7  C   UNL     1       2.832  47.127  72.094  0.00  0.00    +0.000 A 
ATOM      8  N   UNL     1       3.394  47.232  73.293  0.00  0.00    +0.000 N 
ATOM      9  N   UNL     1       3.343  46.472  71.056  0.00  0.00    +0.000 NA
ATOM     10  N   UNL     1       2.419  46.731  70.120  0.00  0.00    +0.000 N 
ATOM     11  C   UNL     1      -0.884  48.374  70.430  0.00  0.00    +0.000 C 
ATOM     12  C   UNL     1      -1.332  49.732  69.880  0.00  0.00    +0.000 C 
ATOM     13  H   UNL     1       2.789  47.508  74.052  0.00  0.00    +0.000 HD
ATOM     14  H   UNL     1       4.118  46.569  73.526  0.00  0.00    +0.000 HD
ATOM     15  H   UNL     1       2.529  46.344  69.194  0.00  0.00    +0.000 HD
ENDROOT
BRANCH   1  17
ATOM     16  C   UNL     1      -2.033  48.320  66.486  0.00  0.00    +0.000 C 
ATOM     17  N   UNL     1      -2.493  49.026  67.705  0.00  0.00    +0.000 NA
BRANCH  17  18
ATOM     18  C   UNL     1      -3.121  47.983  68.571  0.00  0.00    +0.000 C 
BRANCH  18  19
ATOM     19  C   UNL     1      -3.045  46.486  68.181  0.00  0.00    +0.000 C 
BRANCH  19  20
ATOM     20  C   UNL     1      -3.949  45.508  68.909  0.00  0.00    +0.000 A 
ATOM     21  C   UNL     1      -5.263  45.269  68.466  0.00  0.00    +0.000 A 
ATOM     22  C   UNL     1      -6.137  44.459  69.191  0.00  0.00    +0.000 A 
ATOM     23  C   UNL     1      -5.690  43.823  70.342  0.00  0.00    +0.000 A 
ATOM     24 CL   UNL     1      -6.769  42.831  71.239  0.00  0.00    +0.000 Cl
ATOM     25  C   UNL     1      -4.379  43.993  70.775  0.00  0.00    +0.000 A 
ATOM     26  C   UNL     1      -3.515  44.832  70.065  0.00  0.00    +0.000 A 
ATOM     27 CL   UNL     1      -1.917  45.032  70.695  0.00  0.00    +0.000 Cl
ENDBRANCH  19  20
ENDBRANCH  18  19
ENDBRANCH  17  18
ENDBRANCH   1  17
TORSDOF 4
ENDMDL
MODEL 5
REMARK VINA RESULT:      -7.8      4.967      7.436
REMARK  Name = CHEMBL4084148-2025
REMARK  5 active torsions:
REMARK  status: ('A' for Active; 'I' for Inactive)
REMARK    1  A    between atoms: C_1  and  N_2
REMARK    2  A    between atoms: N_2  and  C_3
REMARK    3  A    between atoms: N_2  and  C_13
REMARK    4  A    between atoms: C_3  and  C_4
REMARK    5  A    between atoms: C_4  and  C_5
REMARK                            x       y       z     vdW  Elec       q    Type
REMARK                         _______ _______ _______ _____ _____    ______ ____
ROOT
ATOM      1  C   UNL     1      -2.345  47.450  69.230  0.00  0.00    +0.000 C 
ATOM      2  C   UNL     1      -2.781  47.984  67.850  0.00  0.00    +0.000 C 
ATOM      3  C   UNL     1      -1.603  48.403  66.980  0.00  0.00    +0.000 C 
ATOM      4  N   UNL     1      -0.855  49.446  67.659  0.00  0.00    +0.000 N 
ATOM      5  C   UNL     1      -0.505  50.608  67.058  0.00  0.00    +0.000 A 
ATOM      6  N   UNL     1      -0.131  51.745  67.612  0.00  0.00    +0.000 NA
ATOM      7  C   UNL     1      -0.018  52.588  66.550  0.00  0.00    +0.000 A 
ATOM      8  N   UNL     1       0.265  53.865  66.781  0.00  0.00    +0.000 N 
ATOM      9  N   UNL     1      -0.200  52.041  65.352  0.00  0.00    +0.000 NA
ATOM     10  N   UNL     1      -0.505  50.783  65.697  0.00  0.00    +0.000 N 
ATOM     11  C   UNL     1      -0.390  49.131  69.008  0.00  0.00    +0.000 C 
ATOM     12  C   UNL     1      -1.555  48.632  69.869  0.00  0.00    +0.000 C 
ATOM     13  H   UNL     1       0.646  54.085  67.689  0.00  0.00    +0.000 HD
ATOM     14  H   UNL     1       0.624  54.407  66.010  0.00  0.00    +0.000 HD
ATOM     15  H   UNL     1      -0.691  50.101  64.975  0.00  0.00    +0.000 HD
ENDROOT
BRANCH   1  17
ATOM     16  C   UNL     1      -0.686  46.075  70.392  0.00  0.00    +0.000 C 
ATOM     17  N   UNL     1      -1.610  46.147  69.235  0.00  0.00    +0.000 NA
BRANCH  17  18
ATOM     18  C   UNL     1      -2.459  44.921  69.311  0.00  0.00    +0.000 C 
BRANCH  18  19
ATOM     19  C   UNL     1      -3.807  44.942  70.074  0.00  0.00    +0.000 C 
BRANCH  19  20
ATOM     20  C   UNL     1      -5.086  44.782  69.274  0.00  0.00    +0.000 A 
ATOM     21  C   UNL     1      -5.300  45.515  68.093  0.00  0.00    +0.000 A 
ATOM     22  C   UNL     1      -6.517  45.457  67.413  0.00  0.00    +0.000 A 
ATOM     23  C   UNL     1      -7.521  44.615  67.871  0.00  0.00    +0.000 A 
ATOM     24 CL   UNL     1      -9.022  44.549  67.036  0.00  0.00    +0.000 Cl
ATOM     25  C   UNL     1      -7.321  43.833  69.004  0.00  0.00    +0.000 A 
ATOM     26  C   UNL     1      -6.113  43.917  69.703  0.00  0.00    +0.000 A 
ATOM     27 CL   UNL     1      -5.959  42.952  71.130  0.00  0.00    +0.000 Cl
ENDBRANCH  19  20
ENDBRANCH  18  19
ENDBRANCH  17  18
ENDBRANCH   1  17
TORSDOF 4
ENDMDL
MODEL 6
REMARK VINA RESULT:      -7.7      5.455      7.686
REMARK  Name = CHEMBL4084148-2025
REMARK  5 active torsions:
REMARK  status: ('A' for Active; 'I' for Inactive)
REMARK    1  A    between atoms: C_1  and  N_2
REMARK    2  A    between atoms: N_2  and  C_3
REMARK    3  A    between atoms: N_2  and  C_13
REMARK    4  A    between atoms: C_3  and  C_4
REMARK    5  A    between atoms: C_4  and  C_5
REMARK                            x       y       z     vdW  Elec       q    Type
REMARK                         _______ _______ _______ _____ _____    ______ ____
ROOT
ATOM      1  C   UNL     1      -5.801  48.785  66.970  0.00  0.00    +0.000 C 
ATOM      2  C   UNL     1      -5.165  48.743  68.375  0.00  0.00    +0.000 C 
ATOM      3  C   UNL     1      -4.165  47.606  68.536  0.00  0.00    +0.000 C 
ATOM      4  N   UNL     1      -4.838  46.341  68.300  0.00  0.00    +0.000 N 
ATOM      5  C   UNL     1      -4.748  45.291  69.151  0.00  0.00    +0.000 A 
ATOM      6  N   UNL     1      -5.530  44.234  69.245  0.00  0.00    +0.000 NA
ATOM      7  C   UNL     1      -5.042  43.580  70.333  0.00  0.00    +0.000 A 
ATOM      8  N   UNL     1      -5.677  42.493  70.759  0.00  0.00    +0.000 N 
ATOM      9  N   UNL     1      -3.943  44.095  70.877  0.00  0.00    +0.000 NA
ATOM     10  N   UNL     1      -3.772  45.180  70.109  0.00  0.00    +0.000 N 
ATOM     11  C   UNL     1      -5.537  46.212  67.023  0.00  0.00    +0.000 C 
ATOM     12  C   UNL     1      -6.488  47.395  66.815  0.00  0.00    +0.000 C 
ATOM     13  H   UNL     1      -6.314  42.060  70.108  0.00  0.00    +0.000 HD
ATOM     14  H   UNL     1      -5.169  41.865  71.362  0.00  0.00    +0.000 HD
ATOM     15  H   UNL     1      -2.984  45.788  70.279  0.00  0.00    +0.000 HD
ENDROOT
BRANCH   1  17
ATOM     16  C   UNL     1      -5.564  48.931  64.538  0.00  0.00    +0.000 C 
ATOM     17  N   UNL     1      -4.890  49.148  65.840  0.00  0.00    +0.000 NA
BRANCH  17  18
ATOM     18  C   UNL     1      -4.406  50.561  65.821  0.00  0.00    +0.000 C 
BRANCH  18  19
ATOM     19  C   UNL     1      -2.892  50.875  65.910  0.00  0.00    +0.000 C 
BRANCH  19  20
ATOM     20  C   UNL     1      -2.131  50.402  67.135  0.00  0.00    +0.000 A 
ATOM     21  C   UNL     1      -1.255  49.303  67.064  0.00  0.00    +0.000 A 
ATOM     22  C   UNL     1      -0.638  48.792  68.207  0.00  0.00    +0.000 A 
ATOM     23  C   UNL     1      -0.840  49.412  69.432  0.00  0.00    +0.000 A 
ATOM     24 CL   UNL     1      -0.086  48.777  70.840  0.00  0.00    +0.000 Cl
ATOM     25  C   UNL     1      -1.656  50.535  69.527  0.00  0.00    +0.000 A 
ATOM     26  C   UNL     1      -2.300  51.025  68.387  0.00  0.00    +0.000 A 
ATOM     27 CL   UNL     1      -3.337  52.393  68.594  0.00  0.00    +0.000 Cl
ENDBRANCH  19  20
ENDBRANCH  18  19
ENDBRANCH  17  18
ENDBRANCH   1  17
TORSDOF 4
ENDMDL
MODEL 7
REMARK VINA RESULT:      -7.7      4.835      7.958
REMARK  Name = CHEMBL4084148-2025
REMARK  5 active torsions:
REMARK  status: ('A' for Active; 'I' for Inactive)
REMARK    1  A    between atoms: C_1  and  N_2
REMARK    2  A    between atoms: N_2  and  C_3
REMARK    3  A    between atoms: N_2  and  C_13
REMARK    4  A    between atoms: C_3  and  C_4
REMARK    5  A    between atoms: C_4  and  C_5
REMARK                            x       y       z     vdW  Elec       q    Type
REMARK                         _______ _______ _______ _____ _____    ______ ____
ROOT
ATOM      1  C   UNL     1      -2.490  49.061  67.212  0.00  0.00    +0.000 C 
ATOM      2  C   UNL     1      -1.590  48.579  68.368  0.00  0.00    +0.000 C 
ATOM      3  C   UNL     1      -1.409  47.066  68.384  0.00  0.00    +0.000 C 
ATOM      4  N   UNL     1      -2.708  46.432  68.520  0.00  0.00    +0.000 N 
ATOM      5  C   UNL     1      -2.962  45.471  69.440  0.00  0.00    +0.000 A 
ATOM      6  N   UNL     1      -4.127  45.049  69.893  0.00  0.00    +0.000 NA
ATOM      7  C   UNL     1      -3.781  44.169  70.871  0.00  0.00    +0.000 A 
ATOM      8  N   UNL     1      -4.745  43.619  71.601  0.00  0.00    +0.000 N 
ATOM      9  N   UNL     1      -2.480  43.929  71.004  0.00  0.00    +0.000 NA
ATOM     10  N   UNL     1      -1.978  44.764  70.084  0.00  0.00    +0.000 N 
ATOM     11  C   UNL     1      -3.713  46.802  67.526  0.00  0.00    +0.000 C 
ATOM     12  C   UNL     1      -3.845  48.327  67.446  0.00  0.00    +0.000 C 
ATOM     13  H   UNL     1      -5.679  43.668  71.223  0.00  0.00    +0.000 HD
ATOM     14  H   UNL     1      -4.520  42.778  72.110  0.00  0.00    +0.000 HD
ATOM     15  H   UNL     1      -0.979  44.800  69.938  0.00  0.00    +0.000 HD
ENDROOT
BRANCH   1  17
ATOM     16  C   UNL     1      -2.556  49.884  64.908  0.00  0.00    +0.000 C 
ATOM     17  N   UNL     1      -1.938  48.904  65.831  0.00  0.00    +0.000 NA
BRANCH  17  18
ATOM     18  C   UNL     1      -0.462  49.086  65.695  0.00  0.00    +0.000 C 
BRANCH  18  19
ATOM     19  C   UNL     1       0.114  50.200  64.785  0.00  0.00    +0.000 C 
BRANCH  19  20
ATOM     20  C   UNL     1       1.220  49.831  63.813  0.00  0.00    +0.000 A 
ATOM     21  C   UNL     1       1.988  48.667  63.996  0.00  0.00    +0.000 A 
ATOM     22  C   UNL     1       3.077  48.379  63.173  0.00  0.00    +0.000 A 
ATOM     23  C   UNL     1       3.379  49.222  62.113  0.00  0.00    +0.000 A 
ATOM     24 CL   UNL     1       4.726  48.871  61.104  0.00  0.00    +0.000 Cl
ATOM     25  C   UNL     1       2.604  50.352  61.869  0.00  0.00    +0.000 A 
ATOM     26  C   UNL     1       1.534  50.657  62.715  0.00  0.00    +0.000 A 
ATOM     27 CL   UNL     1       0.650  52.104  62.379  0.00  0.00    +0.000 Cl
ENDBRANCH  19  20
ENDBRANCH  18  19
ENDBRANCH  17  18
ENDBRANCH   1  17
TORSDOF 4
ENDMDL
MODEL 8
REMARK VINA RESULT:      -7.7      4.788      7.332
REMARK  Name = CHEMBL4084148-2025
REMARK  5 active torsions:
REMARK  status: ('A' for Active; 'I' for Inactive)
REMARK    1  A    between atoms: C_1  and  N_2
REMARK    2  A    between atoms: N_2  and  C_3
REMARK    3  A    between atoms: N_2  and  C_13
REMARK    4  A    between atoms: C_3  and  C_4
REMARK    5  A    between atoms: C_4  and  C_5
REMARK                            x       y       z     vdW  Elec       q    Type
REMARK                         _______ _______ _______ _____ _____    ______ ____
ROOT
ATOM      1  C   UNL     1      -4.444  49.032  67.123  0.00  0.00    +0.000 C 
ATOM      2  C   UNL     1      -3.982  48.659  68.547  0.00  0.00    +0.000 C 
ATOM      3  C   UNL     1      -3.418  47.247  68.634  0.00  0.00    +0.000 C 
ATOM      4  N   UNL     1      -4.439  46.300  68.222  0.00  0.00    +0.000 N 
ATOM      5  C   UNL     1      -4.765  45.208  68.953  0.00  0.00    +0.000 A 
ATOM      6  N   UNL     1      -5.851  44.462  68.885  0.00  0.00    +0.000 NA
ATOM      7  C   UNL     1      -5.696  43.590  69.917  0.00  0.00    +0.000 A 
ATOM      8  N   UNL     1      -6.681  42.740  70.184  0.00  0.00    +0.000 N 
ATOM      9  N   UNL     1      -4.543  43.666  70.575  0.00  0.00    +0.000 NA
ATOM     10  N   UNL     1      -3.965  44.698  69.945  0.00  0.00    +0.000 N 
ATOM     11  C   UNL     1      -5.026  46.520  66.902  0.00  0.00    +0.000 C 
ATOM     12  C   UNL     1      -5.525  47.963  66.776  0.00  0.00    +0.000 C 
ATOM     13  H   UNL     1      -7.364  42.599  69.454  0.00  0.00    +0.000 HD
ATOM     14  H   UNL     1      -6.457  41.929  70.739  0.00  0.00    +0.000 HD
ATOM     15  H   UNL     1      -3.042  44.996  70.224  0.00  0.00    +0.000 HD
ENDROOT
BRANCH   1  17
ATOM     16  C   UNL     1      -3.905  49.807  64.864  0.00  0.00    +0.000 C 
ATOM     17  N   UNL     1      -3.369  49.174  66.092  0.00  0.00    +0.000 NA
BRANCH  17  18
ATOM     18  C   UNL     1      -2.186  49.992  66.494  0.00  0.00    +0.000 C 
BRANCH  18  19
ATOM     19  C   UNL     1      -0.748  49.486  66.217  0.00  0.00    +0.000 C 
BRANCH  19  20
ATOM     20  C   UNL     1      -0.009  48.779  67.338  0.00  0.00    +0.000 A 
ATOM     21  C   UNL     1      -0.310  49.046  68.686  0.00  0.00    +0.000 A 
ATOM     22  C   UNL     1       0.440  48.485  69.721  0.00  0.00    +0.000 A 
ATOM     23  C   UNL     1       1.465  47.598  69.425  0.00  0.00    +0.000 A 
ATOM     24 CL   UNL     1       2.392  46.913  70.700  0.00  0.00    +0.000 Cl
ATOM     25  C   UNL     1       1.751  47.268  68.104  0.00  0.00    +0.000 A 
ATOM     26  C   UNL     1       1.021  47.857  67.066  0.00  0.00    +0.000 A 
ATOM     27 CL   UNL     1       1.469  47.437  65.450  0.00  0.00    +0.000 Cl
ENDBRANCH  19  20
ENDBRANCH  18  19
ENDBRANCH  17  18
ENDBRANCH   1  17
TORSDOF 4
ENDMDL
MODEL 9
REMARK VINA RESULT:      -7.6      5.166      7.195
REMARK  Name = CHEMBL4084148-2025
REMARK  5 active torsions:
REMARK  status: ('A' for Active; 'I' for Inactive)
REMARK    1  A    between atoms: C_1  and  N_2
REMARK    2  A    between atoms: N_2  and  C_3
REMARK    3  A    between atoms: N_2  and  C_13
REMARK    4  A    between atoms: C_3  and  C_4
REMARK    5  A    between atoms: C_4  and  C_5
REMARK                            x       y       z     vdW  Elec       q    Type
REMARK                         _______ _______ _______ _____ _____    ______ ____
ROOT
ATOM      1  C   UNL     1      -2.692  48.837  66.930  0.00  0.00    +0.000 C 
ATOM      2  C   UNL     1      -2.855  48.326  68.376  0.00  0.00    +0.000 C 
ATOM      3  C   UNL     1      -1.890  48.990  69.350  0.00  0.00    +0.000 C 
ATOM      4  N   UNL     1      -0.527  48.728  68.923  0.00  0.00    +0.000 N 
ATOM      5  C   UNL     1       0.426  48.255  69.760  0.00  0.00    +0.000 A 
ATOM      6  N   UNL     1       1.573  47.676  69.464  0.00  0.00    +0.000 NA
ATOM      7  C   UNL     1       2.061  47.307  70.679  0.00  0.00    +0.000 A 
ATOM      8  N   UNL     1       3.188  46.607  70.725  0.00  0.00    +0.000 N 
ATOM      9  N   UNL     1       1.351  47.698  71.733  0.00  0.00    +0.000 NA
ATOM     10  N   UNL     1       0.318  48.301  71.128  0.00  0.00    +0.000 N 
ATOM     11  C   UNL     1      -0.196  49.114  67.553  0.00  0.00    +0.000 C 
ATOM     12  C   UNL     1      -1.209  48.516  66.572  0.00  0.00    +0.000 C 
ATOM     13  H   UNL     1       3.760  46.618  69.894  0.00  0.00    +0.000 HD
ATOM     14  H   UNL     1       3.686  46.586  71.602  0.00  0.00    +0.000 HD
ATOM     15  H   UNL     1      -0.408  48.722  71.688  0.00  0.00    +0.000 HD
ENDROOT
BRANCH   1  17
ATOM     16  C   UNL     1      -2.911  50.604  65.249  0.00  0.00    +0.000 C 
ATOM     17  N   UNL     1      -3.088  50.258  66.679  0.00  0.00    +0.000 NA
BRANCH  17  18
ATOM     18  C   UNL     1      -4.501  50.609  67.014  0.00  0.00    +0.000 C 
BRANCH  18  19
ATOM     19  C   UNL     1      -5.679  49.894  66.306  0.00  0.00    +0.000 C 
BRANCH  19  20
ATOM     20  C   UNL     1      -6.107  48.533  66.822  0.00  0.00    +0.000 A 
ATOM     21  C   UNL     1      -6.671  48.388  68.103  0.00  0.00    +0.000 A 
ATOM     22  C   UNL     1      -6.963  47.128  68.629  0.00  0.00    +0.000 A 
ATOM     23  C   UNL     1      -6.754  45.995  67.855  0.00  0.00    +0.000 A 
ATOM     24 CL   UNL     1      -7.108  44.444  68.506  0.00  0.00    +0.000 Cl
ATOM     25  C   UNL     1      -6.251  46.108  66.563  0.00  0.00    +0.000 A 
ATOM     26  C   UNL     1      -5.927  47.368  66.050  0.00  0.00    +0.000 A 
ATOM     27 CL   UNL     1      -5.259  47.423  64.456  0.00  0.00    +0.000 Cl
ENDBRANCH  19  20
ENDBRANCH  18  19
ENDBRANCH  17  18
ENDBRANCH   1  17
TORSDOF 4
ENDMDL
