MODEL 1
REMARK VINA RESULT:      -8.8      0.000      0.000
REMARK  Name = CHEMBL4068944-8.7
REMARK  8 active torsions:
REMARK  status: ('A' for Active; 'I' for Inactive)
REMARK    1  A    between atoms: C_1  and  C_2
REMARK    2  A    between atoms: C_2  and  C_3
REMARK    3  A    between atoms: C_2  and  C_4
REMARK    4  A    between atoms: C_4  and  N_5
REMARK    5  A    between atoms: N_5  and  C_6
REMARK    6  A    between atoms: N_5  and  C_15
REMARK    7  A    between atoms: C_6  and  C_7
REMARK    8  A    between atoms: C_7  and  C_8
REMARK                            x       y       z     vdW  Elec       q    Type
REMARK                         _______ _______ _______ _____ _____    ______ ____
ROOT
ATOM      1  C   UNL     1      -0.211  48.667  68.137  0.00  0.00    +0.000 C 
ATOM      2  C   UNL     1       1.288  48.346  67.893  0.00  0.00    +0.000 C 
ATOM      3  C   UNL     1       1.797  47.083  68.597  0.00  0.00    +0.000 C 
ATOM      4  N   UNL     1       1.483  47.141  70.017  0.00  0.00    +0.000 N 
ATOM      5  C   UNL     1       2.398  47.043  71.010  0.00  0.00    +0.000 A 
ATOM      6  N   UNL     1       2.297  47.413  72.268  0.00  0.00    +0.000 NA
ATOM      7  C   UNL     1       3.502  47.090  72.802  0.00  0.00    +0.000 A 
ATOM      8  N   UNL     1       3.716  47.342  74.092  0.00  0.00    +0.000 N 
ATOM      9  N   UNL     1       4.353  46.490  71.981  0.00  0.00    +0.000 NA
ATOM     10  N   UNL     1       3.641  46.476  70.844  0.00  0.00    +0.000 N 
ATOM     11  C   UNL     1       0.090  47.429  70.344  0.00  0.00    +0.000 C 
ATOM     12  C   UNL     1      -0.318  48.748  69.689  0.00  0.00    +0.000 C 
ATOM     13  H   UNL     1       2.894  47.502  74.654  0.00  0.00    +0.000 HD
ATOM     14  H   UNL     1       4.438  46.797  74.544  0.00  0.00    +0.000 HD
ATOM     15  H   UNL     1       4.025  46.043  70.017  0.00  0.00    +0.000 HD
ENDROOT
BRANCH   1  16
ATOM     16  N   UNL     1      -1.245  47.782  67.473  0.00  0.00    +0.000 NA
BRANCH  16  17
ATOM     17  C   UNL     1      -2.625  48.172  67.956  0.00  0.00    +0.000 C 
BRANCH  17  19
ATOM     18  C   UNL     1      -4.506  46.588  67.235  0.00  0.00    +0.000 C 
ATOM     19  C   UNL     1      -3.627  47.061  68.392  0.00  0.00    +0.000 C 
ATOM     20  C   UNL     1      -2.874  45.839  68.950  0.00  0.00    +0.000 C 
ENDBRANCH  17  19
ENDBRANCH  16  17
BRANCH  16  21
ATOM     21  C   UNL     1      -1.239  47.899  65.980  0.00  0.00    +0.000 C 
BRANCH  21  22
ATOM     22  C   UNL     1      -0.724  49.171  65.250  0.00  0.00    +0.000 C 
BRANCH  22  23
ATOM     23  C   UNL     1       0.529  49.035  64.416  0.00  0.00    +0.000 A 
ATOM     24  C   UNL     1       0.982  50.098  63.625  0.00  0.00    +0.000 A 
ATOM     25  C   UNL     1       2.132  49.977  62.846  0.00  0.00    +0.000 A 
ATOM     26  C   UNL     1       2.862  48.796  62.875  0.00  0.00    +0.000 A 
ATOM     27 BR   UNL     1       4.418  48.635  61.815  0.00  0.00    +0.000 Br
ATOM     28  C   UNL     1       2.456  47.737  63.685  0.00  0.00    +0.000 A 
ATOM     29  C   UNL     1       1.296  47.859  64.459  0.00  0.00    +0.000 A 
ENDBRANCH  22  23
ENDBRANCH  21  22
ENDBRANCH  16  21
ENDBRANCH   1  16
TORSDOF 6
ENDMDL
MODEL 2
REMARK VINA RESULT:      -8.7      3.400      6.126
REMARK  Name = CHEMBL4068944-8.7
REMARK  8 active torsions:
REMARK  status: ('A' for Active; 'I' for Inactive)
REMARK    1  A    between atoms: C_1  and  C_2
REMARK    2  A    between atoms: C_2  and  C_3
REMARK    3  A    between atoms: C_2  and  C_4
REMARK    4  A    between atoms: C_4  and  N_5
REMARK    5  A    between atoms: N_5  and  C_6
REMARK    6  A    between atoms: N_5  and  C_15
REMARK    7  A    between atoms: C_6  and  C_7
REMARK    8  A    between atoms: C_7  and  C_8
REMARK                            x       y       z     vdW  Elec       q    Type
REMARK                         _______ _______ _______ _____ _____    ______ ____
ROOT
ATOM      1  C   UNL     1      -0.652  46.801  68.928  0.00  0.00    +0.000 C 
ATOM      2  C   UNL     1      -0.661  46.743  70.479  0.00  0.00    +0.000 C 
ATOM      3  C   UNL     1       0.355  47.665  71.162  0.00  0.00    +0.000 C 
ATOM      4  N   UNL     1       1.686  47.430  70.622  0.00  0.00    +0.000 N 
ATOM      5  C   UNL     1       2.765  47.088  71.364  0.00  0.00    +0.000 A 
ATOM      6  N   UNL     1       3.893  46.530  70.978  0.00  0.00    +0.000 NA
ATOM      7  C   UNL     1       4.607  46.408  72.125  0.00  0.00    +0.000 A 
ATOM      8  N   UNL     1       5.824  45.871  72.064  0.00  0.00    +0.000 N 
ATOM      9  N   UNL     1       4.033  46.897  73.216  0.00  0.00    +0.000 NA
ATOM     10  N   UNL     1       2.860  47.317  72.718  0.00  0.00    +0.000 N 
ATOM     11  C   UNL     1       1.794  47.475  69.167  0.00  0.00    +0.000 C 
ATOM     12  C   UNL     1       0.823  46.463  68.560  0.00  0.00    +0.000 C 
ATOM     13  H   UNL     1       6.248  45.838  71.149  0.00  0.00    +0.000 HD
ATOM     14  H   UNL     1       6.458  46.105  72.816  0.00  0.00    +0.000 HD
ATOM     15  H   UNL     1       2.194  47.776  73.322  0.00  0.00    +0.000 HD
ENDROOT
BRANCH   1  16
ATOM     16  N   UNL     1      -1.207  48.041  68.259  0.00  0.00    +0.000 NA
BRANCH  16  17
ATOM     17  C   UNL     1      -0.731  48.095  66.824  0.00  0.00    +0.000 C 
BRANCH  17  19
ATOM     18  C   UNL     1      -0.084  50.525  67.317  0.00  0.00    +0.000 C 
ATOM     19  C   UNL     1      -0.080  49.402  66.280  0.00  0.00    +0.000 C 
ATOM     20  C   UNL     1       1.379  49.148  65.858  0.00  0.00    +0.000 C 
ENDBRANCH  17  19
ENDBRANCH  16  17
BRANCH  16  21
ATOM     21  C   UNL     1      -2.704  48.072  68.240  0.00  0.00    +0.000 C 
BRANCH  21  22
ATOM     22  C   UNL     1      -3.541  47.134  67.327  0.00  0.00    +0.000 C 
BRANCH  22  23
ATOM     23  C   UNL     1      -4.433  46.119  68.003  0.00  0.00    +0.000 A 
ATOM     24  C   UNL     1      -5.686  45.797  67.469  0.00  0.00    +0.000 A 
ATOM     25  C   UNL     1      -6.519  44.868  68.092  0.00  0.00    +0.000 A 
ATOM     26  C   UNL     1      -6.089  44.225  69.246  0.00  0.00    +0.000 A 
ATOM     27 BR   UNL     1      -7.222  42.969  70.090  0.00  0.00    +0.000 Br
ATOM     28  C   UNL     1      -4.830  44.497  69.776  0.00  0.00    +0.000 A 
ATOM     29  C   UNL     1      -4.001  45.436  69.152  0.00  0.00    +0.000 A 
ENDBRANCH  22  23
ENDBRANCH  21  22
ENDBRANCH  16  21
ENDBRANCH   1  16
TORSDOF 6
ENDMDL
MODEL 3
REMARK VINA RESULT:      -8.6      4.271      8.115
REMARK  Name = CHEMBL4068944-8.7
REMARK  8 active torsions:
REMARK  status: ('A' for Active; 'I' for Inactive)
REMARK    1  A    between atoms: C_1  and  C_2
REMARK    2  A    between atoms: C_2  and  C_3
REMARK    3  A    between atoms: C_2  and  C_4
REMARK    4  A    between atoms: C_4  and  N_5
REMARK    5  A    between atoms: N_5  and  C_6
REMARK    6  A    between atoms: N_5  and  C_15
REMARK    7  A    between atoms: C_6  and  C_7
REMARK    8  A    between atoms: C_7  and  C_8
REMARK                            x       y       z     vdW  Elec       q    Type
REMARK                         _______ _______ _______ _____ _____    ______ ____
ROOT
ATOM      1  C   UNL     1       0.520  49.007  67.308  0.00  0.00    +0.000 C 
ATOM      2  C   UNL     1      -0.215  50.250  66.738  0.00  0.00    +0.000 C 
ATOM      3  C   UNL     1      -0.683  50.111  65.285  0.00  0.00    +0.000 C 
ATOM      4  N   UNL     1       0.430  49.708  64.439  0.00  0.00    +0.000 N 
ATOM      5  C   UNL     1       0.852  50.393  63.350  0.00  0.00    +0.000 A 
ATOM      6  N   UNL     1       2.011  50.330  62.730  0.00  0.00    +0.000 NA
ATOM      7  C   UNL     1       1.892  51.229  61.720  0.00  0.00    +0.000 A 
ATOM      8  N   UNL     1       2.920  51.398  60.892  0.00  0.00    +0.000 N 
ATOM      9  N   UNL     1       0.713  51.829  61.621  0.00  0.00    +0.000 NA
ATOM     10  N   UNL     1       0.067  51.295  62.668  0.00  0.00    +0.000 N 
ATOM     11  C   UNL     1       1.176  48.538  64.890  0.00  0.00    +0.000 C 
ATOM     12  C   UNL     1       1.692  48.787  66.306  0.00  0.00    +0.000 C 
ATOM     13  H   UNL     1       3.614  50.665  60.893  0.00  0.00    +0.000 HD
ATOM     14  H   UNL     1       2.706  51.775  59.979  0.00  0.00    +0.000 HD
ATOM     15  H   UNL     1      -0.895  51.544  62.844  0.00  0.00    +0.000 HD
ENDROOT
BRANCH   1  16
ATOM     16  N   UNL     1      -0.302  47.770  67.607  0.00  0.00    +0.000 NA
BRANCH  16  17
ATOM     17  C   UNL     1       0.298  47.041  68.788  0.00  0.00    +0.000 C 
BRANCH  17  19
ATOM     18  C   UNL     1       0.343  48.345  70.994  0.00  0.00    +0.000 C 
ATOM     19  C   UNL     1       1.166  47.829  69.815  0.00  0.00    +0.000 C 
ATOM     20  C   UNL     1       2.291  46.938  70.373  0.00  0.00    +0.000 C 
ENDBRANCH  17  19
ENDBRANCH  16  17
BRANCH  16  21
ATOM     21  C   UNL     1      -1.727  48.085  67.945  0.00  0.00    +0.000 C 
BRANCH  21  22
ATOM     22  C   UNL     1      -2.920  47.381  67.242  0.00  0.00    +0.000 C 
BRANCH  22  23
ATOM     23  C   UNL     1      -3.687  46.351  68.038  0.00  0.00    +0.000 A 
ATOM     24  C   UNL     1      -3.096  45.702  69.128  0.00  0.00    +0.000 A 
ATOM     25  C   UNL     1      -3.794  44.744  69.862  0.00  0.00    +0.000 A 
ATOM     26  C   UNL     1      -5.110  44.448  69.530  0.00  0.00    +0.000 A 
ATOM     27 BR   UNL     1      -6.052  43.146  70.526  0.00  0.00    +0.000 Br
ATOM     28  C   UNL     1      -5.736  45.109  68.476  0.00  0.00    +0.000 A 
ATOM     29  C   UNL     1      -5.029  46.064  67.736  0.00  0.00    +0.000 A 
ENDBRANCH  22  23
ENDBRANCH  21  22
ENDBRANCH  16  21
ENDBRANCH   1  16
TORSDOF 6
ENDMDL
MODEL 4
REMARK VINA RESULT:      -8.5      4.083      5.894
REMARK  Name = CHEMBL4068944-8.7
REMARK  8 active torsions:
REMARK  status: ('A' for Active; 'I' for Inactive)
REMARK    1  A    between atoms: C_1  and  C_2
REMARK    2  A    between atoms: C_2  and  C_3
REMARK    3  A    between atoms: C_2  and  C_4
REMARK    4  A    between atoms: C_4  and  N_5
REMARK    5  A    between atoms: N_5  and  C_6
REMARK    6  A    between atoms: N_5  and  C_15
REMARK    7  A    between atoms: C_6  and  C_7
REMARK    8  A    between atoms: C_7  and  C_8
REMARK                            x       y       z     vdW  Elec       q    Type
REMARK                         _______ _______ _______ _____ _____    ______ ____
ROOT
ATOM      1  C   UNL     1      -1.353  49.488  69.167  0.00  0.00    +0.000 C 
ATOM      2  C   UNL     1      -0.046  49.053  68.451  0.00  0.00    +0.000 C 
ATOM      3  C   UNL     1       0.475  47.667  68.850  0.00  0.00    +0.000 C 
ATOM      4  N   UNL     1       0.598  47.577  70.297  0.00  0.00    +0.000 N 
ATOM      5  C   UNL     1       1.741  47.264  70.952  0.00  0.00    +0.000 A 
ATOM      6  N   UNL     1       2.061  47.481  72.209  0.00  0.00    +0.000 NA
ATOM      7  C   UNL     1       3.315  46.976  72.320  0.00  0.00    +0.000 A 
ATOM      8  N   UNL     1       3.927  47.040  73.501  0.00  0.00    +0.000 N 
ATOM      9  N   UNL     1       3.803  46.403  71.228  0.00  0.00    +0.000 NA
ATOM     10  N   UNL     1       2.795  46.602  70.365  0.00  0.00    +0.000 N 
ATOM     11  C   UNL     1      -0.589  47.958  71.057  0.00  0.00    +0.000 C 
ATOM     12  C   UNL     1      -0.991  49.382  70.679  0.00  0.00    +0.000 C 
ATOM     13  H   UNL     1       3.332  47.209  74.299  0.00  0.00    +0.000 HD
ATOM     14  H   UNL     1       4.670  46.374  73.661  0.00  0.00    +0.000 HD
ATOM     15  H   UNL     1       2.861  46.241  69.425  0.00  0.00    +0.000 HD
ENDROOT
BRANCH   1  16
ATOM     16  N   UNL     1      -2.643  48.801  68.771  0.00  0.00    +0.000 NA
BRANCH  16  17
ATOM     17  C   UNL     1      -3.659  49.841  68.354  0.00  0.00    +0.000 C 
BRANCH  17  19
ATOM     18  C   UNL     1      -3.986  51.364  66.319  0.00  0.00    +0.000 C 
ATOM     19  C   UNL     1      -3.183  51.116  67.595  0.00  0.00    +0.000 C 
ATOM     20  C   UNL     1      -3.314  52.362  68.491  0.00  0.00    +0.000 C 
ENDBRANCH  17  19
ENDBRANCH  16  17
BRANCH  16  21
ATOM     21  C   UNL     1      -2.470  47.852  67.626  0.00  0.00    +0.000 C 
BRANCH  21  22
ATOM     22  C   UNL     1      -3.680  47.200  66.900  0.00  0.00    +0.000 C 
BRANCH  22  23
ATOM     23  C   UNL     1      -4.501  46.199  67.679  0.00  0.00    +0.000 A 
ATOM     24  C   UNL     1      -4.006  45.627  68.857  0.00  0.00    +0.000 A 
ATOM     25  C   UNL     1      -4.754  44.696  69.576  0.00  0.00    +0.000 A 
ATOM     26  C   UNL     1      -6.027  44.350  69.138  0.00  0.00    +0.000 A 
ATOM     27 BR   UNL     1      -7.036  43.086  70.115  0.00  0.00    +0.000 Br
ATOM     28  C   UNL     1      -6.560  44.936  67.992  0.00  0.00    +0.000 A 
ATOM     29  C   UNL     1      -5.802  45.863  67.268  0.00  0.00    +0.000 A 
ENDBRANCH  22  23
ENDBRANCH  21  22
ENDBRANCH  16  21
ENDBRANCH   1  16
TORSDOF 6
ENDMDL
MODEL 5
REMARK VINA RESULT:      -8.5      2.982      4.579
REMARK  Name = CHEMBL4068944-8.7
REMARK  8 active torsions:
REMARK  status: ('A' for Active; 'I' for Inactive)
REMARK    1  A    between atoms: C_1  and  C_2
REMARK    2  A    between atoms: C_2  and  C_3
REMARK    3  A    between atoms: C_2  and  C_4
REMARK    4  A    between atoms: C_4  and  N_5
REMARK    5  A    between atoms: N_5  and  C_6
REMARK    6  A    between atoms: N_5  and  C_15
REMARK    7  A    between atoms: C_6  and  C_7
REMARK    8  A    between atoms: C_7  and  C_8
REMARK                            x       y       z     vdW  Elec       q    Type
REMARK                         _______ _______ _______ _____ _____    ______ ____
ROOT
ATOM      1  C   UNL     1      -1.368  49.020  67.872  0.00  0.00    +0.000 C 
ATOM      2  C   UNL     1      -0.445  48.336  68.916  0.00  0.00    +0.000 C 
ATOM      3  C   UNL     1      -0.447  46.804  68.871  0.00  0.00    +0.000 C 
ATOM      4  N   UNL     1      -1.811  46.304  68.949  0.00  0.00    +0.000 N 
ATOM      5  C   UNL     1      -2.257  45.435  69.887  0.00  0.00    +0.000 A 
ATOM      6  N   UNL     1      -3.492  45.186  70.265  0.00  0.00    +0.000 NA
ATOM      7  C   UNL     1      -3.355  44.245  71.233  0.00  0.00    +0.000 A 
ATOM      8  N   UNL     1      -4.452  43.773  71.823  0.00  0.00    +0.000 N 
ATOM      9  N   UNL     1      -2.115  43.837  71.467  0.00  0.00    +0.000 NA
ATOM     10  N   UNL     1      -1.428  44.609  70.612  0.00  0.00    +0.000 N 
ATOM     11  C   UNL     1      -2.752  46.883  67.996  0.00  0.00    +0.000 C 
ATOM     12  C   UNL     1      -2.768  48.401  68.165  0.00  0.00    +0.000 C 
ATOM     13  H   UNL     1      -5.321  43.936  71.336  0.00  0.00    +0.000 HD
ATOM     14  H   UNL     1      -4.374  42.863  72.257  0.00  0.00    +0.000 HD
ATOM     15  H   UNL     1      -0.427  44.505  70.536  0.00  0.00    +0.000 HD
ENDROOT
BRANCH   1  16
ATOM     16  N   UNL     1      -0.947  48.982  66.417  0.00  0.00    +0.000 NA
BRANCH  16  17
ATOM     17  C   UNL     1      -1.270  50.309  65.766  0.00  0.00    +0.000 C 
BRANCH  17  19
ATOM     18  C   UNL     1      -0.300  52.178  64.305  0.00  0.00    +0.000 C 
ATOM     19  C   UNL     1      -0.143  51.372  65.594  0.00  0.00    +0.000 C 
ATOM     20  C   UNL     1      -0.142  52.359  66.776  0.00  0.00    +0.000 C 
ENDBRANCH  17  19
ENDBRANCH  16  17
BRANCH  16  21
ATOM     21  C   UNL     1       0.519  48.736  66.242  0.00  0.00    +0.000 C 
BRANCH  21  22
ATOM     22  C   UNL     1       1.066  47.577  65.362  0.00  0.00    +0.000 C 
BRANCH  22  23
ATOM     23  C   UNL     1       1.974  47.946  64.212  0.00  0.00    +0.000 A 
ATOM     24  C   UNL     1       2.857  47.008  63.667  0.00  0.00    +0.000 A 
ATOM     25  C   UNL     1       3.705  47.343  62.611  0.00  0.00    +0.000 A 
ATOM     26  C   UNL     1       3.653  48.620  62.066  0.00  0.00    +0.000 A 
ATOM     27 BR   UNL     1       4.805  49.071  60.638  0.00  0.00    +0.000 Br
ATOM     28  C   UNL     1       2.753  49.561  62.563  0.00  0.00    +0.000 A 
ATOM     29  C   UNL     1       1.911  49.222  63.628  0.00  0.00    +0.000 A 
ENDBRANCH  22  23
ENDBRANCH  21  22
ENDBRANCH  16  21
ENDBRANCH   1  16
TORSDOF 6
ENDMDL
MODEL 6
REMARK VINA RESULT:      -8.3      2.955      3.995
REMARK  Name = CHEMBL4068944-8.7
REMARK  8 active torsions:
REMARK  status: ('A' for Active; 'I' for Inactive)
REMARK    1  A    between atoms: C_1  and  C_2
REMARK    2  A    between atoms: C_2  and  C_3
REMARK    3  A    between atoms: C_2  and  C_4
REMARK    4  A    between atoms: C_4  and  N_5
REMARK    5  A    between atoms: N_5  and  C_6
REMARK    6  A    between atoms: N_5  and  C_15
REMARK    7  A    between atoms: C_6  and  C_7
REMARK    8  A    between atoms: C_7  and  C_8
REMARK                            x       y       z     vdW  Elec       q    Type
REMARK                         _______ _______ _______ _____ _____    ______ ____
ROOT
ATOM      1  C   UNL     1       0.719  48.318  68.752  0.00  0.00    +0.000 C 
ATOM      2  C   UNL     1       0.943  46.783  68.812  0.00  0.00    +0.000 C 
ATOM      3  C   UNL     1      -0.339  45.944  68.796  0.00  0.00    +0.000 C 
ATOM      4  N   UNL     1      -1.246  46.397  69.840  0.00  0.00    +0.000 N 
ATOM      5  C   UNL     1      -1.745  45.605  70.818  0.00  0.00    +0.000 A 
ATOM      6  N   UNL     1      -2.272  45.949  71.974  0.00  0.00    +0.000 NA
ATOM      7  C   UNL     1      -2.593  44.765  72.553  0.00  0.00    +0.000 A 
ATOM      8  N   UNL     1      -3.162  44.777  73.757  0.00  0.00    +0.000 N 
ATOM      9  N   UNL     1      -2.354  43.684  71.822  0.00  0.00    +0.000 NA
ATOM     10  N   UNL     1      -1.807  44.233  70.728  0.00  0.00    +0.000 N 
ATOM     11  C   UNL     1      -1.526  47.829  69.856  0.00  0.00    +0.000 C 
ATOM     12  C   UNL     1      -0.210  48.597  69.971  0.00  0.00    +0.000 C 
ATOM     13  H   UNL     1      -3.565  45.655  74.047  0.00  0.00    +0.000 HD
ATOM     14  H   UNL     1      -3.702  43.960  74.008  0.00  0.00    +0.000 HD
ATOM     15  H   UNL     1      -1.538  43.646  69.952  0.00  0.00    +0.000 HD
ENDROOT
BRANCH   1  16
ATOM     16  N   UNL     1       0.247  48.917  67.443  0.00  0.00    +0.000 NA
BRANCH  16  17
ATOM     17  C   UNL     1      -0.241  50.329  67.683  0.00  0.00    +0.000 C 
BRANCH  17  19
ATOM     18  C   UNL     1      -2.186  51.915  68.203  0.00  0.00    +0.000 C 
ATOM     19  C   UNL     1      -1.739  50.676  67.429  0.00  0.00    +0.000 C 
ATOM     20  C   UNL     1      -1.990  50.933  65.931  0.00  0.00    +0.000 C 
ENDBRANCH  17  19
ENDBRANCH  16  17
BRANCH  16  21
ATOM     21  C   UNL     1       1.329  48.982  66.409  0.00  0.00    +0.000 C 
BRANCH  21  22
ATOM     22  C   UNL     1       1.035  48.832  64.891  0.00  0.00    +0.000 C 
BRANCH  22  23
ATOM     23  C   UNL     1       2.112  48.212  64.031  0.00  0.00    +0.000 A 
ATOM     24  C   UNL     1       2.442  46.858  64.161  0.00  0.00    +0.000 A 
ATOM     25  C   UNL     1       3.441  46.281  63.378  0.00  0.00    +0.000 A 
ATOM     26  C   UNL     1       4.102  47.050  62.429  0.00  0.00    +0.000 A 
ATOM     27 BR   UNL     1       5.457  46.265  61.372  0.00  0.00    +0.000 Br
ATOM     28  C   UNL     1       3.765  48.391  62.251  0.00  0.00    +0.000 A 
ATOM     29  C   UNL     1       2.767  48.968  63.045  0.00  0.00    +0.000 A 
ENDBRANCH  22  23
ENDBRANCH  21  22
ENDBRANCH  16  21
ENDBRANCH   1  16
TORSDOF 6
ENDMDL
MODEL 7
REMARK VINA RESULT:      -8.2      3.213      4.550
REMARK  Name = CHEMBL4068944-8.7
REMARK  8 active torsions:
REMARK  status: ('A' for Active; 'I' for Inactive)
REMARK    1  A    between atoms: C_1  and  C_2
REMARK    2  A    between atoms: C_2  and  C_3
REMARK    3  A    between atoms: C_2  and  C_4
REMARK    4  A    between atoms: C_4  and  N_5
REMARK    5  A    between atoms: N_5  and  C_6
REMARK    6  A    between atoms: N_5  and  C_15
REMARK    7  A    between atoms: C_6  and  C_7
REMARK    8  A    between atoms: C_7  and  C_8
REMARK                            x       y       z     vdW  Elec       q    Type
REMARK                         _______ _______ _______ _____ _____    ______ ____
ROOT
ATOM      1  C   UNL     1      -1.340  49.100  66.380  0.00  0.00    +0.000 C 
ATOM      2  C   UNL     1      -2.592  48.201  66.194  0.00  0.00    +0.000 C 
ATOM      3  C   UNL     1      -3.413  47.972  67.467  0.00  0.00    +0.000 C 
ATOM      4  N   UNL     1      -2.554  47.483  68.535  0.00  0.00    +0.000 N 
ATOM      5  C   UNL     1      -2.752  46.326  69.210  0.00  0.00    +0.000 A 
ATOM      6  N   UNL     1      -1.897  45.627  69.925  0.00  0.00    +0.000 NA
ATOM      7  C   UNL     1      -2.623  44.568  70.362  0.00  0.00    +0.000 A 
ATOM      8  N   UNL     1      -2.027  43.660  71.132  0.00  0.00    +0.000 N 
ATOM      9  N   UNL     1      -3.904  44.567  70.017  0.00  0.00    +0.000 NA
ATOM     10  N   UNL     1      -3.968  45.685  69.278  0.00  0.00    +0.000 N 
ATOM     11  C   UNL     1      -1.353  48.272  68.791  0.00  0.00    +0.000 C 
ATOM     12  C   UNL     1      -0.538  48.377  67.503  0.00  0.00    +0.000 C 
ATOM     13  H   UNL     1      -1.162  43.946  71.565  0.00  0.00    +0.000 HD
ATOM     14  H   UNL     1      -2.630  43.102  71.721  0.00  0.00    +0.000 HD
ATOM     15  H   UNL     1      -4.851  45.978  68.887  0.00  0.00    +0.000 HD
ENDROOT
BRANCH   1  16
ATOM     16  N   UNL     1      -1.555  50.582  66.605  0.00  0.00    +0.000 NA
BRANCH  16  17
ATOM     17  C   UNL     1      -1.147  50.940  68.017  0.00  0.00    +0.000 C 
BRANCH  17  19
ATOM     18  C   UNL     1      -1.871  53.235  68.898  0.00  0.00    +0.000 C 
ATOM     19  C   UNL     1      -2.137  51.731  68.925  0.00  0.00    +0.000 C 
ATOM     20  C   UNL     1      -3.591  51.495  68.476  0.00  0.00    +0.000 C 
ENDBRANCH  17  19
ENDBRANCH  16  17
BRANCH  16  21
ATOM     21  C   UNL     1      -0.753  51.436  65.672  0.00  0.00    +0.000 C 
BRANCH  21  22
ATOM     22  C   UNL     1      -0.721  51.183  64.139  0.00  0.00    +0.000 C 
BRANCH  22  23
ATOM     23  C   UNL     1       0.541  50.589  63.557  0.00  0.00    +0.000 A 
ATOM     24  C   UNL     1       1.180  51.191  62.467  0.00  0.00    +0.000 A 
ATOM     25  C   UNL     1       2.339  50.644  61.919  0.00  0.00    +0.000 A 
ATOM     26  C   UNL     1       2.893  49.500  62.481  0.00  0.00    +0.000 A 
ATOM     27 BR   UNL     1       4.463  48.761  61.734  0.00  0.00    +0.000 Br
ATOM     28  C   UNL     1       2.300  48.905  63.593  0.00  0.00    +0.000 A 
ATOM     29  C   UNL     1       1.131  49.453  64.134  0.00  0.00    +0.000 A 
ENDBRANCH  22  23
ENDBRANCH  21  22
ENDBRANCH  16  21
ENDBRANCH   1  16
TORSDOF 6
ENDMDL
MODEL 8
REMARK VINA RESULT:      -8.1      4.496      8.552
REMARK  Name = CHEMBL4068944-8.7
REMARK  8 active torsions:
REMARK  status: ('A' for Active; 'I' for Inactive)
REMARK    1  A    between atoms: C_1  and  C_2
REMARK    2  A    between atoms: C_2  and  C_3
REMARK    3  A    between atoms: C_2  and  C_4
REMARK    4  A    between atoms: C_4  and  N_5
REMARK    5  A    between atoms: N_5  and  C_6
REMARK    6  A    between atoms: N_5  and  C_15
REMARK    7  A    between atoms: C_6  and  C_7
REMARK    8  A    between atoms: C_7  and  C_8
REMARK                            x       y       z     vdW  Elec       q    Type
REMARK                         _______ _______ _______ _____ _____    ______ ____
ROOT
ATOM      1  C   UNL     1      -1.158  50.420  67.878  0.00  0.00    +0.000 C 
ATOM      2  C   UNL     1      -2.430  50.814  67.081  0.00  0.00    +0.000 C 
ATOM      3  C   UNL     1      -2.396  50.447  65.593  0.00  0.00    +0.000 C 
ATOM      4  N   UNL     1      -1.189  50.976  64.976  0.00  0.00    +0.000 N 
ATOM      5  C   UNL     1      -1.175  51.804  63.905  0.00  0.00    +0.000 A 
ATOM      6  N   UNL     1      -0.213  52.597  63.485  0.00  0.00    +0.000 NA
ATOM      7  C   UNL     1      -0.738  53.196  62.386  0.00  0.00    +0.000 A 
ATOM      8  N   UNL     1       0.010  54.072  61.718  0.00  0.00    +0.000 N 
ATOM      9  N   UNL     1      -1.957  52.802  62.044  0.00  0.00    +0.000 NA
ATOM     10  N   UNL     1      -2.225  51.925  63.024  0.00  0.00    +0.000 N 
ATOM     11  C   UNL     1       0.062  50.646  65.651  0.00  0.00    +0.000 C 
ATOM     12  C   UNL     1      -0.009  51.127  67.100  0.00  0.00    +0.000 C 
ATOM     13  H   UNL     1       1.002  54.036  61.901  0.00  0.00    +0.000 HD
ATOM     14  H   UNL     1      -0.236  54.229  60.750  0.00  0.00    +0.000 HD
ATOM     15  H   UNL     1      -3.099  51.421  63.020  0.00  0.00    +0.000 HD
ENDROOT
BRANCH   1  16
ATOM     16  N   UNL     1      -0.924  48.950  68.162  0.00  0.00    +0.000 NA
BRANCH  16  17
ATOM     17  C   UNL     1       0.089  48.810  69.276  0.00  0.00    +0.000 C 
BRANCH  17  19
ATOM     18  C   UNL     1       1.533  46.906  68.348  0.00  0.00    +0.000 C 
ATOM     19  C   UNL     1       0.741  47.420  69.550  0.00  0.00    +0.000 C 
ATOM     20  C   UNL     1       1.698  47.496  70.754  0.00  0.00    +0.000 C 
ENDBRANCH  17  19
ENDBRANCH  16  17
BRANCH  16  21
ATOM     21  C   UNL     1      -2.169  48.235  68.589  0.00  0.00    +0.000 C 
BRANCH  21  22
ATOM     22  C   UNL     1      -2.821  47.119  67.725  0.00  0.00    +0.000 C 
BRANCH  22  23
ATOM     23  C   UNL     1      -3.631  46.067  68.445  0.00  0.00    +0.000 A 
ATOM     24  C   UNL     1      -3.099  45.377  69.541  0.00  0.00    +0.000 A 
ATOM     25  C   UNL     1      -3.837  44.398  70.204  0.00  0.00    +0.000 A 
ATOM     26  C   UNL     1      -5.135  44.120  69.795  0.00  0.00    +0.000 A 
ATOM     27 BR   UNL     1      -6.131  42.790  70.695  0.00  0.00    +0.000 Br
ATOM     28  C   UNL     1      -5.704  44.820  68.733  0.00  0.00    +0.000 A 
ATOM     29  C   UNL     1      -4.956  45.796  68.065  0.00  0.00    +0.000 A 
ENDBRANCH  22  23
ENDBRANCH  21  22
ENDBRANCH  16  21
ENDBRANCH   1  16
TORSDOF 6
ENDMDL
MODEL 9
REMARK VINA RESULT:      -7.9      3.055      6.808
REMARK  Name = CHEMBL4068944-8.7
REMARK  8 active torsions:
REMARK  status: ('A' for Active; 'I' for Inactive)
REMARK    1  A    between atoms: C_1  and  C_2
REMARK    2  A    between atoms: C_2  and  C_3
REMARK    3  A    between atoms: C_2  and  C_4
REMARK    4  A    between atoms: C_4  and  N_5
REMARK    5  A    between atoms: N_5  and  C_6
REMARK    6  A    between atoms: N_5  and  C_15
REMARK    7  A    between atoms: C_6  and  C_7
REMARK    8  A    between atoms: C_7  and  C_8
REMARK                            x       y       z     vdW  Elec       q    Type
REMARK                         _______ _______ _______ _____ _____    ______ ____
ROOT
ATOM      1  C   UNL     1      -1.553  48.046  66.602  0.00  0.00    +0.000 C 
ATOM      2  C   UNL     1      -2.121  48.863  65.410  0.00  0.00    +0.000 C 
ATOM      3  C   UNL     1      -3.056  50.011  65.805  0.00  0.00    +0.000 C 
ATOM      4  N   UNL     1      -4.115  49.518  66.672  0.00  0.00    +0.000 N 
ATOM      5  C   UNL     1      -5.439  49.650  66.418  0.00  0.00    +0.000 A 
ATOM      6  N   UNL     1      -6.450  48.974  66.920  0.00  0.00    +0.000 NA
ATOM      7  C   UNL     1      -7.538  49.513  66.314  0.00  0.00    +0.000 A 
ATOM      8  N   UNL     1      -8.742  49.035  66.622  0.00  0.00    +0.000 N 
ATOM      9  N   UNL     1      -7.295  50.526  65.493  0.00  0.00    +0.000 NA
ATOM     10  N   UNL     1      -5.957  50.594  65.562  0.00  0.00    +0.000 N 
ATOM     11  C   UNL     1      -3.676  48.744  67.829  0.00  0.00    +0.000 C 
ATOM     12  C   UNL     1      -2.830  47.564  67.352  0.00  0.00    +0.000 C 
ATOM     13  H   UNL     1      -8.800  48.498  67.474  0.00  0.00    +0.000 HD
ATOM     14  H   UNL     1      -9.527  49.650  66.455  0.00  0.00    +0.000 HD
ATOM     15  H   UNL     1      -5.465  51.311  65.050  0.00  0.00    +0.000 HD
ENDROOT
BRANCH   1  16
ATOM     16  N   UNL     1      -0.508  48.702  67.480  0.00  0.00    +0.000 NA
BRANCH  16  17
ATOM     17  C   UNL     1      -0.297  47.864  68.721  0.00  0.00    +0.000 C 
BRANCH  17  19
ATOM     18  C   UNL     1       0.733  48.118  71.054  0.00  0.00    +0.000 C 
ATOM     19  C   UNL     1       1.009  48.042  69.554  0.00  0.00    +0.000 C 
ATOM     20  C   UNL     1       1.976  46.868  69.306  0.00  0.00    +0.000 C 
ENDBRANCH  17  19
ENDBRANCH  16  17
BRANCH  16  21
ATOM     21  C   UNL     1       0.818  48.846  66.799  0.00  0.00    +0.000 C 
BRANCH  21  22
ATOM     22  C   UNL     1       1.208  47.996  65.558  0.00  0.00    +0.000 C 
BRANCH  22  23
ATOM     23  C   UNL     1       1.721  48.734  64.344  0.00  0.00    +0.000 A 
ATOM     24  C   UNL     1       2.825  48.256  63.628  0.00  0.00    +0.000 A 
ATOM     25  C   UNL     1       3.310  48.935  62.511  0.00  0.00    +0.000 A 
ATOM     26  C   UNL     1       2.672  50.091  62.078  0.00  0.00    +0.000 A 
ATOM     27 BR   UNL     1       3.334  51.011  60.566  0.00  0.00    +0.000 Br
ATOM     28  C   UNL     1       1.546  50.566  62.748  0.00  0.00    +0.000 A 
ATOM     29  C   UNL     1       1.068  49.885  63.873  0.00  0.00    +0.000 A 
ENDBRANCH  22  23
ENDBRANCH  21  22
ENDBRANCH  16  21
ENDBRANCH   1  16
TORSDOF 6
ENDMDL
