MODEL 1
REMARK VINA RESULT:      -8.6      0.000      0.000
REMARK  Name = CHEMBL4065553-660
REMARK  5 active torsions:
REMARK  status: ('A' for Active; 'I' for Inactive)
REMARK    1  A    between atoms: C_1  and  N_2
REMARK    2  A    between atoms: N_2  and  C_3
REMARK    3  A    between atoms: N_2  and  C_12
REMARK    4  A    between atoms: C_3  and  C_4
REMARK    5  A    between atoms: C_4  and  C_5
REMARK                            x       y       z     vdW  Elec       q    Type
REMARK                         _______ _______ _______ _____ _____    ______ ____
ROOT
ATOM      1  C   UNL     1       0.945  48.306  68.763  0.00  0.00    +0.000 C 
ATOM      2  C   UNL     1       1.118  46.782  68.936  0.00  0.00    +0.000 C 
ATOM      3  C   UNL     1      -0.220  46.053  68.912  0.00  0.00    +0.000 C 
ATOM      4  N   UNL     1      -1.005  46.518  70.041  0.00  0.00    +0.000 N 
ATOM      5  C   UNL     1      -1.656  45.684  70.890  0.00  0.00    +0.000 A 
ATOM      6  N   UNL     1      -2.140  45.937  72.084  0.00  0.00    +0.000 NA
ATOM      7  C   UNL     1      -2.616  44.735  72.506  0.00  0.00    +0.000 A 
ATOM      8  N   UNL     1      -3.135  44.648  73.728  0.00  0.00    +0.000 N 
ATOM      9  N   UNL     1      -2.543  43.747  71.623  0.00  0.00    +0.000 NA
ATOM     10  N   UNL     1      -1.922  44.366  70.607  0.00  0.00    +0.000 N 
ATOM     11  C   UNL     1      -1.208  47.962  70.155  0.00  0.00    +0.000 C 
ATOM     12  C   UNL     1       0.120  48.719  70.018  0.00  0.00    +0.000 C 
ATOM     13  H   UNL     1      -3.374  45.519  74.182  0.00  0.00    +0.000 HD
ATOM     14  H   UNL     1      -3.769  43.880  73.903  0.00  0.00    +0.000 HD
ATOM     15  H   UNL     1      -1.736  43.855  69.756  0.00  0.00    +0.000 HD
ENDROOT
BRANCH   1  17
ATOM     16  C   UNL     1      -0.253  50.103  67.618  0.00  0.00    +0.000 C 
ATOM     17  N   UNL     1       0.366  48.761  67.456  0.00  0.00    +0.000 NA
BRANCH  17  18
ATOM     18  C   UNL     1       1.351  48.928  66.347  0.00  0.00    +0.000 C 
BRANCH  18  19
ATOM     19  C   UNL     1       1.191  48.102  65.060  0.00  0.00    +0.000 C 
BRANCH  19  20
ATOM     20  C   UNL     1       1.917  48.738  63.898  0.00  0.00    +0.000 A 
ATOM     21  C   UNL     1       1.453  49.955  63.371  0.00  0.00    +0.000 A 
ATOM     22  C   UNL     1       2.114  50.564  62.306  0.00  0.00    +0.000 A 
ATOM     23  C   UNL     1       3.243  49.959  61.761  0.00  0.00    +0.000 A 
ATOM     24 CL   UNL     1       4.061  50.709  60.449  0.00  0.00    +0.000 Cl
ATOM     25  C   UNL     1       3.715  48.748  62.273  0.00  0.00    +0.000 A 
ATOM     26  C   UNL     1       3.054  48.136  63.340  0.00  0.00    +0.000 A 
ENDBRANCH  19  20
ENDBRANCH  18  19
ENDBRANCH  17  18
ENDBRANCH   1  17
TORSDOF 4
ENDMDL
MODEL 2
REMARK VINA RESULT:      -8.3      4.650      8.357
REMARK  Name = CHEMBL4065553-660
REMARK  5 active torsions:
REMARK  status: ('A' for Active; 'I' for Inactive)
REMARK    1  A    between atoms: C_1  and  N_2
REMARK    2  A    between atoms: N_2  and  C_3
REMARK    3  A    between atoms: N_2  and  C_12
REMARK    4  A    between atoms: C_3  and  C_4
REMARK    5  A    between atoms: C_4  and  C_5
REMARK                            x       y       z     vdW  Elec       q    Type
REMARK                         _______ _______ _______ _____ _____    ______ ____
ROOT
ATOM      1  C   UNL     1      -0.207  49.270  65.071  0.00  0.00    +0.000 C 
ATOM      2  C   UNL     1      -0.061  47.753  64.834  0.00  0.00    +0.000 C 
ATOM      3  C   UNL     1       1.392  47.300  64.929  0.00  0.00    +0.000 C 
ATOM      4  N   UNL     1       2.139  47.965  63.876  0.00  0.00    +0.000 N 
ATOM      5  C   UNL     1       2.996  47.316  63.049  0.00  0.00    +0.000 A 
ATOM      6  N   UNL     1       3.495  47.717  61.902  0.00  0.00    +0.000 NA
ATOM      7  C   UNL     1       4.228  46.653  61.475  0.00  0.00    +0.000 A 
ATOM      8  N   UNL     1       4.830  46.729  60.291  0.00  0.00    +0.000 N 
ATOM      9  N   UNL     1       4.297  45.629  62.316  0.00  0.00    +0.000 NA
ATOM     10  N   UNL     1       3.502  46.064  63.305  0.00  0.00    +0.000 N 
ATOM     11  C   UNL     1       2.056  49.424  63.826  0.00  0.00    +0.000 C 
ATOM     12  C   UNL     1       0.597  49.897  63.894  0.00  0.00    +0.000 C 
ATOM     13  H   UNL     1       4.918  47.650  59.885  0.00  0.00    +0.000 HD
ATOM     14  H   UNL     1       5.614  46.110  60.136  0.00  0.00    +0.000 HD
ATOM     15  H   UNL     1       3.368  45.487  64.122  0.00  0.00    +0.000 HD
ENDROOT
BRANCH   1  17
ATOM     16  C   UNL     1       0.425  51.234  66.382  0.00  0.00    +0.000 C 
ATOM     17  N   UNL     1       0.185  49.768  66.431  0.00  0.00    +0.000 NA
BRANCH  17  18
ATOM     18  C   UNL     1      -0.844  49.585  67.497  0.00  0.00    +0.000 C 
BRANCH  18  19
ATOM     19  C   UNL     1      -1.047  48.198  68.126  0.00  0.00    +0.000 C 
BRANCH  19  20
ATOM     20  C   UNL     1       0.076  47.848  69.074  0.00  0.00    +0.000 A 
ATOM     21  C   UNL     1       1.175  47.108  68.608  0.00  0.00    +0.000 A 
ATOM     22  C   UNL     1       2.227  46.784  69.463  0.00  0.00    +0.000 A 
ATOM     23  C   UNL     1       2.184  47.197  70.791  0.00  0.00    +0.000 A 
ATOM     24 CL   UNL     1       3.480  46.801  71.848  0.00  0.00    +0.000 Cl
ATOM     25  C   UNL     1       1.097  47.932  71.271  0.00  0.00    +0.000 A 
ATOM     26  C   UNL     1       0.043  48.257  70.415  0.00  0.00    +0.000 A 
ENDBRANCH  19  20
ENDBRANCH  18  19
ENDBRANCH  17  18
ENDBRANCH   1  17
TORSDOF 4
ENDMDL
MODEL 3
REMARK VINA RESULT:      -8.2      5.300      6.993
REMARK  Name = CHEMBL4065553-660
REMARK  5 active torsions:
REMARK  status: ('A' for Active; 'I' for Inactive)
REMARK    1  A    between atoms: C_1  and  N_2
REMARK    2  A    between atoms: N_2  and  C_3
REMARK    3  A    between atoms: N_2  and  C_12
REMARK    4  A    between atoms: C_3  and  C_4
REMARK    5  A    between atoms: C_4  and  C_5
REMARK                            x       y       z     vdW  Elec       q    Type
REMARK                         _______ _______ _______ _____ _____    ______ ____
ROOT
ATOM      1  C   UNL     1      -1.768  50.098  68.812  0.00  0.00    +0.000 C 
ATOM      2  C   UNL     1      -0.450  49.626  68.163  0.00  0.00    +0.000 C 
ATOM      3  C   UNL     1      -0.077  48.213  68.597  0.00  0.00    +0.000 C 
ATOM      4  N   UNL     1       0.140  48.227  70.033  0.00  0.00    +0.000 N 
ATOM      5  C   UNL     1       1.220  47.661  70.627  0.00  0.00    +0.000 A 
ATOM      6  N   UNL     1       1.684  47.848  71.841  0.00  0.00    +0.000 NA
ATOM      7  C   UNL     1       2.815  47.093  71.879  0.00  0.00    +0.000 A 
ATOM      8  N   UNL     1       3.557  47.112  72.983  0.00  0.00    +0.000 N 
ATOM      9  N   UNL     1       3.058  46.368  70.794  0.00  0.00    +0.000 NA
ATOM     10  N   UNL     1       2.041  46.749  70.007  0.00  0.00    +0.000 N 
ATOM     11  C   UNL     1      -0.946  48.750  70.861  0.00  0.00    +0.000 C 
ATOM     12  C   UNL     1      -1.438  50.104  70.334  0.00  0.00    +0.000 C 
ATOM     13  H   UNL     1       3.122  47.484  73.815  0.00  0.00    +0.000 HD
ATOM     14  H   UNL     1       4.177  46.327  73.132  0.00  0.00    +0.000 HD
ATOM     15  H   UNL     1       1.946  46.340  69.088  0.00  0.00    +0.000 HD
ENDROOT
BRANCH   1  17
ATOM     16  C   UNL     1      -4.213  50.103  68.804  0.00  0.00    +0.000 C 
ATOM     17  N   UNL     1      -3.000  49.324  68.442  0.00  0.00    +0.000 NA
BRANCH  17  18
ATOM     18  C   UNL     1      -3.155  49.032  66.987  0.00  0.00    +0.000 C 
BRANCH  18  19
ATOM     19  C   UNL     1      -3.066  47.580  66.491  0.00  0.00    +0.000 C 
BRANCH  19  20
ATOM     20  C   UNL     1      -3.803  46.633  67.408  0.00  0.00    +0.000 A 
ATOM     21  C   UNL     1      -3.140  46.082  68.517  0.00  0.00    +0.000 A 
ATOM     22  C   UNL     1      -3.804  45.215  69.383  0.00  0.00    +0.000 A 
ATOM     23  C   UNL     1      -5.137  44.892  69.143  0.00  0.00    +0.000 A 
ATOM     24 CL   UNL     1      -5.959  43.825  70.210  0.00  0.00    +0.000 Cl
ATOM     25  C   UNL     1      -5.809  45.431  68.043  0.00  0.00    +0.000 A 
ATOM     26  C   UNL     1      -5.145  46.299  67.175  0.00  0.00    +0.000 A 
ENDBRANCH  19  20
ENDBRANCH  18  19
ENDBRANCH  17  18
ENDBRANCH   1  17
TORSDOF 4
ENDMDL
MODEL 4
REMARK VINA RESULT:      -8.0      2.063      2.619
REMARK  Name = CHEMBL4065553-660
REMARK  5 active torsions:
REMARK  status: ('A' for Active; 'I' for Inactive)
REMARK    1  A    between atoms: C_1  and  N_2
REMARK    2  A    between atoms: N_2  and  C_3
REMARK    3  A    between atoms: N_2  and  C_12
REMARK    4  A    between atoms: C_3  and  C_4
REMARK    5  A    between atoms: C_4  and  C_5
REMARK                            x       y       z     vdW  Elec       q    Type
REMARK                         _______ _______ _______ _____ _____    ______ ____
ROOT
ATOM      1  C   UNL     1      -2.329  49.328  67.086  0.00  0.00    +0.000 C 
ATOM      2  C   UNL     1      -1.566  48.816  68.325  0.00  0.00    +0.000 C 
ATOM      3  C   UNL     1      -1.364  47.306  68.285  0.00  0.00    +0.000 C 
ATOM      4  N   UNL     1      -2.674  46.678  68.307  0.00  0.00    +0.000 N 
ATOM      5  C   UNL     1      -2.991  45.647  69.130  0.00  0.00    +0.000 A 
ATOM      6  N   UNL     1      -4.177  45.192  69.461  0.00  0.00    +0.000 NA
ATOM      7  C   UNL     1      -3.911  44.207  70.361  0.00  0.00    +0.000 A 
ATOM      8  N   UNL     1      -4.931  43.574  70.932  0.00  0.00    +0.000 N 
ATOM      9  N   UNL     1      -2.625  43.947  70.563  0.00  0.00    +0.000 NA
ATOM     10  N   UNL     1      -2.056  44.877  69.781  0.00  0.00    +0.000 N 
ATOM     11  C   UNL     1      -3.626  47.098  67.280  0.00  0.00    +0.000 C 
ATOM     12  C   UNL     1      -3.716  48.628  67.203  0.00  0.00    +0.000 C 
ATOM     13  H   UNL     1      -5.835  43.681  70.493  0.00  0.00    +0.000 HD
ATOM     14  H   UNL     1      -4.744  42.658  71.319  0.00  0.00    +0.000 HD
ATOM     15  H   UNL     1      -1.050  44.917  69.713  0.00  0.00    +0.000 HD
ENDROOT
BRANCH   1  17
ATOM     16  C   UNL     1      -2.304  49.981  64.730  0.00  0.00    +0.000 C 
ATOM     17  N   UNL     1      -1.644  49.141  65.765  0.00  0.00    +0.000 NA
BRANCH  17  18
ATOM     18  C   UNL     1      -0.209  49.549  65.728  0.00  0.00    +0.000 C 
BRANCH  18  19
ATOM     19  C   UNL     1       0.849  48.558  65.218  0.00  0.00    +0.000 C 
BRANCH  19  20
ATOM     20  C   UNL     1       1.598  49.108  64.027  0.00  0.00    +0.000 A 
ATOM     21  C   UNL     1       2.723  48.425  63.537  0.00  0.00    +0.000 A 
ATOM     22  C   UNL     1       3.422  48.908  62.433  0.00  0.00    +0.000 A 
ATOM     23  C   UNL     1       2.999  50.081  61.813  0.00  0.00    +0.000 A 
ATOM     24 CL   UNL     1       3.858  50.679  60.449  0.00  0.00    +0.000 Cl
ATOM     25  C   UNL     1       1.883  50.772  62.290  0.00  0.00    +0.000 A 
ATOM     26  C   UNL     1       1.183  50.289  63.396  0.00  0.00    +0.000 A 
ENDBRANCH  19  20
ENDBRANCH  18  19
ENDBRANCH  17  18
ENDBRANCH   1  17
TORSDOF 4
ENDMDL
MODEL 5
REMARK VINA RESULT:      -8.0      6.726      9.578
REMARK  Name = CHEMBL4065553-660
REMARK  5 active torsions:
REMARK  status: ('A' for Active; 'I' for Inactive)
REMARK    1  A    between atoms: C_1  and  N_2
REMARK    2  A    between atoms: N_2  and  C_3
REMARK    3  A    between atoms: N_2  and  C_12
REMARK    4  A    between atoms: C_3  and  C_4
REMARK    5  A    between atoms: C_4  and  C_5
REMARK                            x       y       z     vdW  Elec       q    Type
REMARK                         _______ _______ _______ _____ _____    ______ ____
ROOT
ATOM      1  C   UNL     1      -5.879  47.108  66.535  0.00  0.00    +0.000 C 
ATOM      2  C   UNL     1      -4.410  46.913  66.966  0.00  0.00    +0.000 C 
ATOM      3  C   UNL     1      -4.140  47.501  68.346  0.00  0.00    +0.000 C 
ATOM      4  N   UNL     1      -4.372  48.933  68.278  0.00  0.00    +0.000 N 
ATOM      5  C   UNL     1      -3.507  49.852  68.775  0.00  0.00    +0.000 A 
ATOM      6  N   UNL     1      -3.443  51.140  68.529  0.00  0.00    +0.000 NA
ATOM      7  C   UNL     1      -2.353  51.553  69.230  0.00  0.00    +0.000 A 
ATOM      8  N   UNL     1      -1.986  52.828  69.142  0.00  0.00    +0.000 N 
ATOM      9  N   UNL     1      -1.766  50.626  69.976  0.00  0.00    +0.000 NA
ATOM     10  N   UNL     1      -2.506  49.551  69.667  0.00  0.00    +0.000 N 
ATOM     11  C   UNL     1      -5.677  49.368  67.779  0.00  0.00    +0.000 C 
ATOM     12  C   UNL     1      -6.030  48.657  66.466  0.00  0.00    +0.000 C 
ATOM     13  H   UNL     1      -2.667  53.472  68.765  0.00  0.00    +0.000 HD
ATOM     14  H   UNL     1      -1.415  53.193  69.893  0.00  0.00    +0.000 HD
ATOM     15  H   UNL     1      -2.302  48.666  70.109  0.00  0.00    +0.000 HD
ENDROOT
BRANCH   1  17
ATOM     16  C   UNL     1      -8.215  46.400  66.661  0.00  0.00    +0.000 C 
ATOM     17  N   UNL     1      -6.911  46.416  67.375  0.00  0.00    +0.000 NA
BRANCH  17  18
ATOM     18  C   UNL     1      -6.627  44.983  67.681  0.00  0.00    +0.000 C 
BRANCH  18  19
ATOM     19  C   UNL     1      -7.334  44.305  68.865  0.00  0.00    +0.000 C 
BRANCH  19  20
ATOM     20  C   UNL     1      -6.406  44.139  70.045  0.00  0.00    +0.000 A 
ATOM     21  C   UNL     1      -6.919  43.698  71.277  0.00  0.00    +0.000 A 
ATOM     22  C   UNL     1      -6.080  43.527  72.375  0.00  0.00    +0.000 A 
ATOM     23  C   UNL     1      -4.720  43.798  72.249  0.00  0.00    +0.000 A 
ATOM     24 CL   UNL     1      -3.681  43.586  73.602  0.00  0.00    +0.000 Cl
ATOM     25  C   UNL     1      -4.195  44.239  71.032  0.00  0.00    +0.000 A 
ATOM     26  C   UNL     1      -5.036  44.411  69.931  0.00  0.00    +0.000 A 
ENDBRANCH  19  20
ENDBRANCH  18  19
ENDBRANCH  17  18
ENDBRANCH   1  17
TORSDOF 4
ENDMDL
MODEL 6
REMARK VINA RESULT:      -7.8      5.863      9.677
REMARK  Name = CHEMBL4065553-660
REMARK  5 active torsions:
REMARK  status: ('A' for Active; 'I' for Inactive)
REMARK    1  A    between atoms: C_1  and  N_2
REMARK    2  A    between atoms: N_2  and  C_3
REMARK    3  A    between atoms: N_2  and  C_12
REMARK    4  A    between atoms: C_3  and  C_4
REMARK    5  A    between atoms: C_4  and  C_5
REMARK                            x       y       z     vdW  Elec       q    Type
REMARK                         _______ _______ _______ _____ _____    ______ ____
ROOT
ATOM      1  C   UNL     1      -2.433  47.341  68.359  0.00  0.00    +0.000 C 
ATOM      2  C   UNL     1      -2.057  48.269  69.533  0.00  0.00    +0.000 C 
ATOM      3  C   UNL     1      -2.661  49.660  69.374  0.00  0.00    +0.000 C 
ATOM      4  N   UNL     1      -2.105  50.256  68.172  0.00  0.00    +0.000 N 
ATOM      5  C   UNL     1      -1.607  51.517  68.128  0.00  0.00    +0.000 A 
ATOM      6  N   UNL     1      -0.829  52.064  67.222  0.00  0.00    +0.000 NA
ATOM      7  C   UNL     1      -0.583  53.309  67.712  0.00  0.00    +0.000 A 
ATOM      8  N   UNL     1       0.234  54.109  67.033  0.00  0.00    +0.000 N 
ATOM      9  N   UNL     1      -1.222  53.622  68.832  0.00  0.00    +0.000 NA
ATOM     10  N   UNL     1      -1.860  52.469  69.086  0.00  0.00    +0.000 N 
ATOM     11  C   UNL     1      -2.240  49.491  66.932  0.00  0.00    +0.000 C 
ATOM     12  C   UNL     1      -1.783  48.039  67.127  0.00  0.00    +0.000 C 
ATOM     13  H   UNL     1       0.432  53.851  66.076  0.00  0.00    +0.000 HD
ATOM     14  H   UNL     1       0.149  55.102  67.205  0.00  0.00    +0.000 HD
ATOM     15  H   UNL     1      -2.461  52.404  69.894  0.00  0.00    +0.000 HD
ENDROOT
BRANCH   1  17
ATOM     16  C   UNL     1      -4.243  46.960  66.761  0.00  0.00    +0.000 C 
ATOM     17  N   UNL     1      -3.892  47.031  68.204  0.00  0.00    +0.000 NA
BRANCH  17  18
ATOM     18  C   UNL     1      -4.327  45.718  68.766  0.00  0.00    +0.000 C 
BRANCH  18  19
ATOM     19  C   UNL     1      -3.330  44.869  69.570  0.00  0.00    +0.000 C 
BRANCH  19  20
ATOM     20  C   UNL     1      -3.945  44.354  70.850  0.00  0.00    +0.000 A 
ATOM     21  C   UNL     1      -3.232  44.461  72.056  0.00  0.00    +0.000 A 
ATOM     22  C   UNL     1      -3.784  44.002  73.250  0.00  0.00    +0.000 A 
ATOM     23  C   UNL     1      -5.054  43.431  73.245  0.00  0.00    +0.000 A 
ATOM     24 CL   UNL     1      -5.739  42.866  74.717  0.00  0.00    +0.000 Cl
ATOM     25  C   UNL     1      -5.774  43.316  72.053  0.00  0.00    +0.000 A 
ATOM     26  C   UNL     1      -5.222  43.775  70.857  0.00  0.00    +0.000 A 
ENDBRANCH  19  20
ENDBRANCH  18  19
ENDBRANCH  17  18
ENDBRANCH   1  17
TORSDOF 4
ENDMDL
MODEL 7
REMARK VINA RESULT:      -7.7      4.305      5.546
REMARK  Name = CHEMBL4065553-660
REMARK  5 active torsions:
REMARK  status: ('A' for Active; 'I' for Inactive)
REMARK    1  A    between atoms: C_1  and  N_2
REMARK    2  A    between atoms: N_2  and  C_3
REMARK    3  A    between atoms: N_2  and  C_12
REMARK    4  A    between atoms: C_3  and  C_4
REMARK    5  A    between atoms: C_4  and  C_5
REMARK                            x       y       z     vdW  Elec       q    Type
REMARK                         _______ _______ _______ _____ _____    ______ ____
ROOT
ATOM      1  C   UNL     1      -3.413  47.964  67.727  0.00  0.00    +0.000 C 
ATOM      2  C   UNL     1      -2.919  47.264  69.011  0.00  0.00    +0.000 C 
ATOM      3  C   UNL     1      -3.098  45.752  68.939  0.00  0.00    +0.000 C 
ATOM      4  N   UNL     1      -4.519  45.473  68.827  0.00  0.00    +0.000 N 
ATOM      5  C   UNL     1      -5.158  44.547  69.585  0.00  0.00    +0.000 A 
ATOM      6  N   UNL     1      -6.446  44.402  69.796  0.00  0.00    +0.000 NA
ATOM      7  C   UNL     1      -6.518  43.373  70.683  0.00  0.00    +0.000 A 
ATOM      8  N   UNL     1      -7.712  43.011  71.143  0.00  0.00    +0.000 N 
ATOM      9  N   UNL     1      -5.362  42.796  70.988  0.00  0.00    +0.000 NA
ATOM     10  N   UNL     1      -4.509  43.560  70.289  0.00  0.00    +0.000 N 
ATOM     11  C   UNL     1      -5.238  46.130  67.735  0.00  0.00    +0.000 C 
ATOM     12  C   UNL     1      -4.935  47.634  67.701  0.00  0.00    +0.000 C 
ATOM     13  H   UNL     1      -8.516  43.347  70.631  0.00  0.00    +0.000 HD
ATOM     14  H   UNL     1      -7.795  42.074  71.514  0.00  0.00    +0.000 HD
ATOM     15  H   UNL     1      -3.523  43.347  70.309  0.00  0.00    +0.000 HD
ENDROOT
BRANCH   1  17
ATOM     16  C   UNL     1      -3.392  48.197  65.294  0.00  0.00    +0.000 C 
ATOM     17  N   UNL     1      -2.678  47.623  66.465  0.00  0.00    +0.000 NA
BRANCH  17  18
ATOM     18  C   UNL     1      -1.292  48.168  66.369  0.00  0.00    +0.000 C 
BRANCH  18  19
ATOM     19  C   UNL     1      -0.798  49.175  67.419  0.00  0.00    +0.000 C 
BRANCH  19  20
ATOM     20  C   UNL     1       0.178  48.541  68.382  0.00  0.00    +0.000 A 
ATOM     21  C   UNL     1       0.017  48.734  69.764  0.00  0.00    +0.000 A 
ATOM     22  C   UNL     1       0.898  48.150  70.670  0.00  0.00    +0.000 A 
ATOM     23  C   UNL     1       1.950  47.369  70.199  0.00  0.00    +0.000 A 
ATOM     24 CL   UNL     1       3.039  46.645  71.314  0.00  0.00    +0.000 Cl
ATOM     25  C   UNL     1       2.126  47.170  68.827  0.00  0.00    +0.000 A 
ATOM     26  C   UNL     1       1.243  47.756  67.918  0.00  0.00    +0.000 A 
ENDBRANCH  19  20
ENDBRANCH  18  19
ENDBRANCH  17  18
ENDBRANCH   1  17
TORSDOF 4
ENDMDL
MODEL 8
REMARK VINA RESULT:      -7.6      4.599      6.812
REMARK  Name = CHEMBL4065553-660
REMARK  5 active torsions:
REMARK  status: ('A' for Active; 'I' for Inactive)
REMARK    1  A    between atoms: C_1  and  N_2
REMARK    2  A    between atoms: N_2  and  C_3
REMARK    3  A    between atoms: N_2  and  C_12
REMARK    4  A    between atoms: C_3  and  C_4
REMARK    5  A    between atoms: C_4  and  C_5
REMARK                            x       y       z     vdW  Elec       q    Type
REMARK                         _______ _______ _______ _____ _____    ______ ____
ROOT
ATOM      1  C   UNL     1      -1.353  48.568  65.637  0.00  0.00    +0.000 C 
ATOM      2  C   UNL     1      -1.939  48.161  67.005  0.00  0.00    +0.000 C 
ATOM      3  C   UNL     1      -1.246  48.880  68.157  0.00  0.00    +0.000 C 
ATOM      4  N   UNL     1       0.150  48.481  68.161  0.00  0.00    +0.000 N 
ATOM      5  C   UNL     1       0.808  48.086  69.279  0.00  0.00    +0.000 A 
ATOM      6  N   UNL     1       1.944  47.436  69.380  0.00  0.00    +0.000 NA
ATOM      7  C   UNL     1       2.093  47.242  70.718  0.00  0.00    +0.000 A 
ATOM      8  N   UNL     1       3.146  46.552  71.148  0.00  0.00    +0.000 N 
ATOM      9  N   UNL     1       1.166  47.801  71.485  0.00  0.00    +0.000 NA
ATOM     10  N   UNL     1       0.354  48.324  70.554  0.00  0.00    +0.000 N 
ATOM     11  C   UNL     1       0.894  48.666  66.915  0.00  0.00    +0.000 C 
ATOM     12  C   UNL     1       0.125  48.085  65.721  0.00  0.00    +0.000 C 
ATOM     13  H   UNL     1       3.902  46.421  70.491  0.00  0.00    +0.000 HD
ATOM     14  H   UNL     1       3.427  46.696  72.109  0.00  0.00    +0.000 HD
ATOM     15  H   UNL     1      -0.461  48.844  70.845  0.00  0.00    +0.000 HD
ENDROOT
BRANCH   1  17
ATOM     16  C   UNL     1      -0.438  50.406  64.311  0.00  0.00    +0.000 C 
ATOM     17  N   UNL     1      -1.519  50.008  65.250  0.00  0.00    +0.000 NA
BRANCH  17  18
ATOM     18  C   UNL     1      -2.787  50.331  64.530  0.00  0.00    +0.000 C 
BRANCH  18  19
ATOM     19  C   UNL     1      -3.892  51.116  65.254  0.00  0.00    +0.000 C 
BRANCH  19  20
ATOM     20  C   UNL     1      -4.693  50.227  66.175  0.00  0.00    +0.000 A 
ATOM     21  C   UNL     1      -5.528  49.235  65.632  0.00  0.00    +0.000 A 
ATOM     22  C   UNL     1      -6.267  48.396  66.463  0.00  0.00    +0.000 A 
ATOM     23  C   UNL     1      -6.179  48.547  67.844  0.00  0.00    +0.000 A 
ATOM     24 CL   UNL     1      -7.088  47.513  68.872  0.00  0.00    +0.000 Cl
ATOM     25  C   UNL     1      -5.356  49.529  68.399  0.00  0.00    +0.000 A 
ATOM     26  C   UNL     1      -4.614  50.370  67.567  0.00  0.00    +0.000 A 
ENDBRANCH  19  20
ENDBRANCH  18  19
ENDBRANCH  17  18
ENDBRANCH   1  17
TORSDOF 4
ENDMDL
MODEL 9
REMARK VINA RESULT:      -7.6      4.944      9.151
REMARK  Name = CHEMBL4065553-660
REMARK  5 active torsions:
REMARK  status: ('A' for Active; 'I' for Inactive)
REMARK    1  A    between atoms: C_1  and  N_2
REMARK    2  A    between atoms: N_2  and  C_3
REMARK    3  A    between atoms: N_2  and  C_12
REMARK    4  A    between atoms: C_3  and  C_4
REMARK    5  A    between atoms: C_4  and  C_5
REMARK                            x       y       z     vdW  Elec       q    Type
REMARK                         _______ _______ _______ _____ _____    ______ ____
ROOT
ATOM      1  C   UNL     1      -2.085  49.462  65.302  0.00  0.00    +0.000 C 
ATOM      2  C   UNL     1      -1.474  48.187  64.685  0.00  0.00    +0.000 C 
ATOM      3  C   UNL     1       0.021  48.082  64.963  0.00  0.00    +0.000 C 
ATOM      4  N   UNL     1       0.676  49.213  64.330  0.00  0.00    +0.000 N 
ATOM      5  C   UNL     1       1.787  49.094  63.560  0.00  0.00    +0.000 A 
ATOM      6  N   UNL     1       2.297  49.956  62.711  0.00  0.00    +0.000 NA
ATOM      7  C   UNL     1       3.357  49.296  62.172  0.00  0.00    +0.000 A 
ATOM      8  N   UNL     1       4.063  49.898  61.219  0.00  0.00    +0.000 N 
ATOM      9  N   UNL     1       3.608  48.097  62.684  0.00  0.00    +0.000 NA
ATOM     10  N   UNL     1       2.596  47.982  63.557  0.00  0.00    +0.000 N 
ATOM     11  C   UNL     1       0.180  50.544  64.677  0.00  0.00    +0.000 C 
ATOM     12  C   UNL     1      -1.348  50.613  64.555  0.00  0.00    +0.000 C 
ATOM     13  H   UNL     1       3.934  50.894  61.119  0.00  0.00    +0.000 HD
ATOM     14  H   UNL     1       5.007  49.566  61.070  0.00  0.00    +0.000 HD
ATOM     15  H   UNL     1       2.528  47.153  64.128  0.00  0.00    +0.000 HD
ENDROOT
BRANCH   1  17
ATOM     16  C   UNL     1      -2.688  50.821  67.243  0.00  0.00    +0.000 C 
ATOM     17  N   UNL     1      -2.040  49.559  66.798  0.00  0.00    +0.000 NA
BRANCH  17  18
ATOM     18  C   UNL     1      -2.768  48.479  67.529  0.00  0.00    +0.000 C 
BRANCH  18  19
ATOM     19  C   UNL     1      -1.979  47.304  68.127  0.00  0.00    +0.000 C 
BRANCH  19  20
ATOM     20  C   UNL     1      -2.898  46.273  68.739  0.00  0.00    +0.000 A 
ATOM     21  C   UNL     1      -4.230  46.180  68.301  0.00  0.00    +0.000 A 
ATOM     22  C   UNL     1      -5.091  45.229  68.843  0.00  0.00    +0.000 A 
ATOM     23  C   UNL     1      -4.626  44.366  69.831  0.00  0.00    +0.000 A 
ATOM     24 CL   UNL     1      -5.686  43.190  70.501  0.00  0.00    +0.000 Cl
ATOM     25  C   UNL     1      -3.306  44.447  70.279  0.00  0.00    +0.000 A 
ATOM     26  C   UNL     1      -2.442  45.399  69.736  0.00  0.00    +0.000 A 
ENDBRANCH  19  20
ENDBRANCH  18  19
ENDBRANCH  17  18
ENDBRANCH   1  17
TORSDOF 4
ENDMDL
