MODEL 1
REMARK VINA RESULT:      -8.6      0.000      0.000
REMARK  Name = CHEMBL4076989-14.2
REMARK  8 active torsions:
REMARK  status: ('A' for Active; 'I' for Inactive)
REMARK    1  A    between atoms: C_1  and  C_2
REMARK    2  A    between atoms: C_2  and  C_3
REMARK    3  A    between atoms: C_2  and  C_4
REMARK    4  A    between atoms: C_4  and  N_5
REMARK    5  A    between atoms: N_5  and  C_6
REMARK    6  A    between atoms: N_5  and  C_15
REMARK    7  A    between atoms: C_6  and  C_7
REMARK    8  A    between atoms: C_7  and  C_8
REMARK                            x       y       z     vdW  Elec       q    Type
REMARK                         _______ _______ _______ _____ _____    ______ ____
ROOT
ATOM      1  C   UNL     1      -2.150  44.879  70.063  0.00  0.00    +0.000 C 
ATOM      2  C   UNL     1      -3.484  44.125  69.833  0.00  0.00    +0.000 C 
ATOM      3  C   UNL     1      -4.559  44.473  70.856  0.00  0.00    +0.000 C 
ATOM      4  N   UNL     1      -4.062  44.254  72.210  0.00  0.00    +0.000 N 
ATOM      5  C   UNL     1      -4.719  43.381  73.006  0.00  0.00    +0.000 A 
ATOM      6  N   UNL     1      -5.667  42.531  72.671  0.00  0.00    +0.000 NA
ATOM      7  C   UNL     1      -5.979  41.920  73.839  0.00  0.00    +0.000 A 
ATOM      8  N   UNL     1      -6.930  40.985  73.825  0.00  0.00    +0.000 N 
ATOM      9  N   UNL     1      -5.323  42.351  74.908  0.00  0.00    +0.000 NA
ATOM     10  N   UNL     1      -4.525  43.279  74.357  0.00  0.00    +0.000 N 
ATOM     11  C   UNL     1      -2.794  44.895  72.534  0.00  0.00    +0.000 C 
ATOM     12  C   UNL     1      -1.747  44.453  71.509  0.00  0.00    +0.000 C 
ATOM     13  H   UNL     1      -7.544  40.998  73.023  0.00  0.00    +0.000 HD
ATOM     14  H   UNL     1      -7.384  40.798  74.709  0.00  0.00    +0.000 HD
ATOM     15  H   UNL     1      -3.913  43.827  74.947  0.00  0.00    +0.000 HD
ENDROOT
BRANCH   1  16
ATOM     16  N   UNL     1      -2.116  46.376  69.842  0.00  0.00    +0.000 NA
BRANCH  16  17
ATOM     17  C   UNL     1      -0.683  46.812  69.698  0.00  0.00    +0.000 C 
BRANCH  17  19
ATOM     18  C   UNL     1       1.589  47.536  70.659  0.00  0.00    +0.000 C 
ATOM     19  C   UNL     1       0.077  47.494  70.873  0.00  0.00    +0.000 C 
ATOM     20  C   UNL     1      -0.418  48.946  71.020  0.00  0.00    +0.000 C 
ENDBRANCH  17  19
ENDBRANCH  16  17
BRANCH  16  21
ATOM     21  C   UNL     1      -2.873  46.825  68.634  0.00  0.00    +0.000 C 
BRANCH  21  22
ATOM     22  C   UNL     1      -2.298  47.858  67.620  0.00  0.00    +0.000 C 
BRANCH  22  23
ATOM     23  C   UNL     1      -2.294  49.329  67.983  0.00  0.00    +0.000 A 
ATOM     24  C   UNL     1      -3.358  49.929  68.669  0.00  0.00    +0.000 A 
ATOM     25  C   UNL     1      -3.359  51.297  68.949  0.00  0.00    +0.000 A 
ATOM     26  C   UNL     1      -2.270  52.078  68.576  0.00  0.00    +0.000 A 
ATOM     27 CL   UNL     1      -2.267  53.761  68.932  0.00  0.00    +0.000 Cl
ATOM     28  C   UNL     1      -1.187  51.500  67.919  0.00  0.00    +0.000 A 
ATOM     29  C   UNL     1      -1.198  50.131  67.625  0.00  0.00    +0.000 A 
ENDBRANCH  22  23
ENDBRANCH  21  22
ENDBRANCH  16  21
ENDBRANCH   1  16
TORSDOF 6
ENDMDL
MODEL 2
REMARK VINA RESULT:      -8.3      5.347      9.715
REMARK  Name = CHEMBL4076989-14.2
REMARK  8 active torsions:
REMARK  status: ('A' for Active; 'I' for Inactive)
REMARK    1  A    between atoms: C_1  and  C_2
REMARK    2  A    between atoms: C_2  and  C_3
REMARK    3  A    between atoms: C_2  and  C_4
REMARK    4  A    between atoms: C_4  and  N_5
REMARK    5  A    between atoms: N_5  and  C_6
REMARK    6  A    between atoms: N_5  and  C_15
REMARK    7  A    between atoms: C_6  and  C_7
REMARK    8  A    between atoms: C_7  and  C_8
REMARK                            x       y       z     vdW  Elec       q    Type
REMARK                         _______ _______ _______ _____ _____    ______ ____
ROOT
ATOM      1  C   UNL     1       0.302  49.258  67.135  0.00  0.00    +0.000 C 
ATOM      2  C   UNL     1      -0.268  50.349  66.193  0.00  0.00    +0.000 C 
ATOM      3  C   UNL     1      -0.366  49.901  64.740  0.00  0.00    +0.000 C 
ATOM      4  N   UNL     1       0.930  49.428  64.266  0.00  0.00    +0.000 N 
ATOM      5  C   UNL     1       1.492  50.043  63.201  0.00  0.00    +0.000 A 
ATOM      6  N   UNL     1       1.119  51.163  62.620  0.00  0.00    +0.000 NA
ATOM      7  C   UNL     1       2.008  51.312  61.608  0.00  0.00    +0.000 A 
ATOM      8  N   UNL     1       1.888  52.380  60.818  0.00  0.00    +0.000 N 
ATOM      9  N   UNL     1       2.900  50.340  61.477  0.00  0.00    +0.000 NA
ATOM     10  N   UNL     1       2.557  49.542  62.500  0.00  0.00    +0.000 N 
ATOM     11  C   UNL     1       1.578  48.415  65.090  0.00  0.00    +0.000 C 
ATOM     12  C   UNL     1       1.702  48.953  66.517  0.00  0.00    +0.000 C 
ATOM     13  H   UNL     1       0.990  52.843  60.843  0.00  0.00    +0.000 HD
ATOM     14  H   UNL     1       2.306  52.304  59.899  0.00  0.00    +0.000 HD
ATOM     15  H   UNL     1       3.048  48.670  62.643  0.00  0.00    +0.000 HD
ENDROOT
BRANCH   1  16
ATOM     16  N   UNL     1      -0.528  48.019  67.395  0.00  0.00    +0.000 NA
BRANCH  16  17
ATOM     17  C   UNL     1       0.007  47.325  68.619  0.00  0.00    +0.000 C 
BRANCH  17  19
ATOM     18  C   UNL     1       0.146  48.461  70.921  0.00  0.00    +0.000 C 
ATOM     19  C   UNL     1       0.900  48.077  69.649  0.00  0.00    +0.000 C 
ATOM     20  C   UNL     1       2.076  47.169  70.055  0.00  0.00    +0.000 C 
ENDBRANCH  17  19
ENDBRANCH  16  17
BRANCH  16  21
ATOM     21  C   UNL     1      -1.981  48.298  67.603  0.00  0.00    +0.000 C 
BRANCH  21  22
ATOM     22  C   UNL     1      -3.100  47.350  67.079  0.00  0.00    +0.000 C 
BRANCH  22  23
ATOM     23  C   UNL     1      -3.712  46.334  68.022  0.00  0.00    +0.000 A 
ATOM     24  C   UNL     1      -2.993  45.782  69.090  0.00  0.00    +0.000 A 
ATOM     25  C   UNL     1      -3.558  44.809  69.916  0.00  0.00    +0.000 A 
ATOM     26  C   UNL     1      -4.871  44.402  69.705  0.00  0.00    +0.000 A 
ATOM     27 CL   UNL     1      -5.569  43.211  70.731  0.00  0.00    +0.000 Cl
ATOM     28  C   UNL     1      -5.617  44.956  68.668  0.00  0.00    +0.000 A 
ATOM     29  C   UNL     1      -5.040  45.919  67.831  0.00  0.00    +0.000 A 
ENDBRANCH  22  23
ENDBRANCH  21  22
ENDBRANCH  16  21
ENDBRANCH   1  16
TORSDOF 6
ENDMDL
MODEL 3
REMARK VINA RESULT:      -8.2      4.305      8.816
REMARK  Name = CHEMBL4076989-14.2
REMARK  8 active torsions:
REMARK  status: ('A' for Active; 'I' for Inactive)
REMARK    1  A    between atoms: C_1  and  C_2
REMARK    2  A    between atoms: C_2  and  C_3
REMARK    3  A    between atoms: C_2  and  C_4
REMARK    4  A    between atoms: C_4  and  N_5
REMARK    5  A    between atoms: N_5  and  C_6
REMARK    6  A    between atoms: N_5  and  C_15
REMARK    7  A    between atoms: C_6  and  C_7
REMARK    8  A    between atoms: C_7  and  C_8
REMARK                            x       y       z     vdW  Elec       q    Type
REMARK                         _______ _______ _______ _____ _____    ______ ____
ROOT
ATOM      1  C   UNL     1      -4.070  48.220  67.411  0.00  0.00    +0.000 C 
ATOM      2  C   UNL     1      -2.626  48.643  67.042  0.00  0.00    +0.000 C 
ATOM      3  C   UNL     1      -1.923  49.419  68.149  0.00  0.00    +0.000 C 
ATOM      4  N   UNL     1      -2.720  50.575  68.545  0.00  0.00    +0.000 N 
ATOM      5  C   UNL     1      -2.173  51.806  68.433  0.00  0.00    +0.000 A 
ATOM      6  N   UNL     1      -1.055  52.146  67.827  0.00  0.00    +0.000 NA
ATOM      7  C   UNL     1      -0.974  53.484  68.028  0.00  0.00    +0.000 A 
ATOM      8  N   UNL     1       0.076  54.133  67.522  0.00  0.00    +0.000 N 
ATOM      9  N   UNL     1      -1.945  54.016  68.757  0.00  0.00    +0.000 NA
ATOM     10  N   UNL     1      -2.698  52.934  69.004  0.00  0.00    +0.000 N 
ATOM     11  C   UNL     1      -4.110  50.302  68.889  0.00  0.00    +0.000 C 
ATOM     12  C   UNL     1      -4.772  49.580  67.713  0.00  0.00    +0.000 C 
ATOM     13  H   UNL     1       0.870  53.557  67.280  0.00  0.00    +0.000 HD
ATOM     14  H   UNL     1       0.304  55.018  67.955  0.00  0.00    +0.000 HD
ATOM     15  H   UNL     1      -3.519  53.017  69.589  0.00  0.00    +0.000 HD
ENDROOT
BRANCH   1  16
ATOM     16  N   UNL     1      -4.267  47.183  68.497  0.00  0.00    +0.000 NA
BRANCH  16  17
ATOM     17  C   UNL     1      -5.716  46.777  68.522  0.00  0.00    +0.000 C 
BRANCH  17  19
ATOM     18  C   UNL     1      -7.388  44.824  68.491  0.00  0.00    +0.000 C 
ATOM     19  C   UNL     1      -6.210  45.497  67.787  0.00  0.00    +0.000 C 
ATOM     20  C   UNL     1      -6.666  45.874  66.365  0.00  0.00    +0.000 C 
ENDBRANCH  17  19
ENDBRANCH  16  17
BRANCH  16  21
ATOM     21  C   UNL     1      -3.433  45.957  68.319  0.00  0.00    +0.000 C 
BRANCH  21  22
ATOM     22  C   UNL     1      -2.497  45.409  69.438  0.00  0.00    +0.000 C 
BRANCH  22  23
ATOM     23  C   UNL     1      -3.108  44.844  70.704  0.00  0.00    +0.000 A 
ATOM     24  C   UNL     1      -2.432  44.861  71.930  0.00  0.00    +0.000 A 
ATOM     25  C   UNL     1      -2.991  44.288  73.074  0.00  0.00    +0.000 A 
ATOM     26  C   UNL     1      -4.260  43.722  73.011  0.00  0.00    +0.000 A 
ATOM     27 CL   UNL     1      -4.953  43.027  74.423  0.00  0.00    +0.000 Cl
ATOM     28  C   UNL     1      -4.966  43.719  71.811  0.00  0.00    +0.000 A 
ATOM     29  C   UNL     1      -4.393  44.278  70.663  0.00  0.00    +0.000 A 
ENDBRANCH  22  23
ENDBRANCH  21  22
ENDBRANCH  16  21
ENDBRANCH   1  16
TORSDOF 6
ENDMDL
MODEL 4
REMARK VINA RESULT:      -8.1      5.868      8.161
REMARK  Name = CHEMBL4076989-14.2
REMARK  8 active torsions:
REMARK  status: ('A' for Active; 'I' for Inactive)
REMARK    1  A    between atoms: C_1  and  C_2
REMARK    2  A    between atoms: C_2  and  C_3
REMARK    3  A    between atoms: C_2  and  C_4
REMARK    4  A    between atoms: C_4  and  N_5
REMARK    5  A    between atoms: N_5  and  C_6
REMARK    6  A    between atoms: N_5  and  C_15
REMARK    7  A    between atoms: C_6  and  C_7
REMARK    8  A    between atoms: C_7  and  C_8
REMARK                            x       y       z     vdW  Elec       q    Type
REMARK                         _______ _______ _______ _____ _____    ______ ____
ROOT
ATOM      1  C   UNL     1       0.194  50.396  66.037  0.00  0.00    +0.000 C 
ATOM      2  C   UNL     1       1.321  49.347  66.206  0.00  0.00    +0.000 C 
ATOM      3  C   UNL     1       0.892  48.121  67.004  0.00  0.00    +0.000 C 
ATOM      4  N   UNL     1       0.353  48.521  68.299  0.00  0.00    +0.000 N 
ATOM      5  C   UNL     1       0.946  48.050  69.419  0.00  0.00    +0.000 A 
ATOM      6  N   UNL     1       2.089  47.406  69.523  0.00  0.00    +0.000 NA
ATOM      7  C   UNL     1       2.199  47.157  70.851  0.00  0.00    +0.000 A 
ATOM      8  N   UNL     1       3.278  46.502  71.280  0.00  0.00    +0.000 N 
ATOM      9  N   UNL     1       1.181  47.562  71.598  0.00  0.00    +0.000 NA
ATOM     10  N   UNL     1       0.395  48.128  70.670  0.00  0.00    +0.000 N 
ATOM     11  C   UNL     1      -0.699  49.529  68.267  0.00  0.00    +0.000 C 
ATOM     12  C   UNL     1      -0.181  50.753  67.510  0.00  0.00    +0.000 C 
ATOM     13  H   UNL     1       3.789  45.991  70.575  0.00  0.00    +0.000 HD
ATOM     14  H   UNL     1       3.188  46.030  72.171  0.00  0.00    +0.000 HD
ATOM     15  H   UNL     1      -0.504  48.507  70.938  0.00  0.00    +0.000 HD
ENDROOT
BRANCH   1  16
ATOM     16  N   UNL     1      -1.001  50.044  65.177  0.00  0.00    +0.000 NA
BRANCH  16  17
ATOM     17  C   UNL     1      -2.143  50.957  65.537  0.00  0.00    +0.000 C 
BRANCH  17  19
ATOM     18  C   UNL     1      -3.580  48.868  65.963  0.00  0.00    +0.000 C 
ATOM     19  C   UNL     1      -3.553  50.394  65.877  0.00  0.00    +0.000 C 
ATOM     20  C   UNL     1      -4.004  50.950  67.241  0.00  0.00    +0.000 C 
ENDBRANCH  17  19
ENDBRANCH  16  17
BRANCH  16  21
ATOM     21  C   UNL     1      -0.744  50.159  63.710  0.00  0.00    +0.000 C 
BRANCH  21  22
ATOM     22  C   UNL     1       0.189  51.251  63.106  0.00  0.00    +0.000 C 
BRANCH  22  23
ATOM     23  C   UNL     1       1.461  50.830  62.399  0.00  0.00    +0.000 A 
ATOM     24  C   UNL     1       2.182  49.691  62.778  0.00  0.00    +0.000 A 
ATOM     25  C   UNL     1       3.380  49.348  62.147  0.00  0.00    +0.000 A 
ATOM     26  C   UNL     1       3.851  50.126  61.096  0.00  0.00    +0.000 A 
ATOM     27 CL   UNL     1       5.321  49.697  60.312  0.00  0.00    +0.000 Cl
ATOM     28  C   UNL     1       3.138  51.247  60.679  0.00  0.00    +0.000 A 
ATOM     29  C   UNL     1       1.947  51.596  61.327  0.00  0.00    +0.000 A 
ENDBRANCH  22  23
ENDBRANCH  21  22
ENDBRANCH  16  21
ENDBRANCH   1  16
TORSDOF 6
ENDMDL
MODEL 5
REMARK VINA RESULT:      -8.1      4.183      6.066
REMARK  Name = CHEMBL4076989-14.2
REMARK  8 active torsions:
REMARK  status: ('A' for Active; 'I' for Inactive)
REMARK    1  A    between atoms: C_1  and  C_2
REMARK    2  A    between atoms: C_2  and  C_3
REMARK    3  A    between atoms: C_2  and  C_4
REMARK    4  A    between atoms: C_4  and  N_5
REMARK    5  A    between atoms: N_5  and  C_6
REMARK    6  A    between atoms: N_5  and  C_15
REMARK    7  A    between atoms: C_6  and  C_7
REMARK    8  A    between atoms: C_7  and  C_8
REMARK                            x       y       z     vdW  Elec       q    Type
REMARK                         _______ _______ _______ _____ _____    ______ ____
ROOT
ATOM      1  C   UNL     1      -1.013  48.766  68.135  0.00  0.00    +0.000 C 
ATOM      2  C   UNL     1      -0.262  47.863  69.146  0.00  0.00    +0.000 C 
ATOM      3  C   UNL     1      -0.591  46.383  68.995  0.00  0.00    +0.000 C 
ATOM      4  N   UNL     1      -2.032  46.171  69.076  0.00  0.00    +0.000 N 
ATOM      5  C   UNL     1      -2.512  45.357  70.043  0.00  0.00    +0.000 A 
ATOM      6  N   UNL     1      -1.867  44.851  71.073  0.00  0.00    +0.000 NA
ATOM      7  C   UNL     1      -2.805  44.105  71.706  0.00  0.00    +0.000 A 
ATOM      8  N   UNL     1      -2.447  43.451  72.812  0.00  0.00    +0.000 N 
ATOM      9  N   UNL     1      -3.996  44.066  71.126  0.00  0.00    +0.000 NA
ATOM     10  N   UNL     1      -3.791  44.869  70.071  0.00  0.00    +0.000 N 
ATOM     11  C   UNL     1      -2.847  46.989  68.187  0.00  0.00    +0.000 C 
ATOM     12  C   UNL     1      -2.514  48.462  68.436  0.00  0.00    +0.000 C 
ATOM     13  H   UNL     1      -1.453  43.323  72.941  0.00  0.00    +0.000 HD
ATOM     14  H   UNL     1      -3.018  42.656  73.064  0.00  0.00    +0.000 HD
ATOM     15  H   UNL     1      -4.531  45.011  69.397  0.00  0.00    +0.000 HD
ENDROOT
BRANCH   1  16
ATOM     16  N   UNL     1      -0.657  48.662  66.667  0.00  0.00    +0.000 NA
BRANCH  16  17
ATOM     17  C   UNL     1      -1.162  49.890  65.959  0.00  0.00    +0.000 C 
BRANCH  17  19
ATOM     18  C   UNL     1      -2.431  48.341  64.347  0.00  0.00    +0.000 C 
ATOM     19  C   UNL     1      -2.157  49.785  64.767  0.00  0.00    +0.000 C 
ATOM     20  C   UNL     1      -3.500  50.420  65.172  0.00  0.00    +0.000 C 
ENDBRANCH  17  19
ENDBRANCH  16  17
BRANCH  16  21
ATOM     21  C   UNL     1       0.809  48.533  66.410  0.00  0.00    +0.000 C 
BRANCH  21  22
ATOM     22  C   UNL     1       1.382  47.712  65.216  0.00  0.00    +0.000 C 
BRANCH  22  23
ATOM     23  C   UNL     1       2.006  48.443  64.046  0.00  0.00    +0.000 A 
ATOM     24  C   UNL     1       1.553  49.700  63.625  0.00  0.00    +0.000 A 
ATOM     25  C   UNL     1       2.109  50.335  62.512  0.00  0.00    +0.000 A 
ATOM     26  C   UNL     1       3.157  49.731  61.827  0.00  0.00    +0.000 A 
ATOM     27 CL   UNL     1       3.848  50.519  60.463  0.00  0.00    +0.000 Cl
ATOM     28  C   UNL     1       3.646  48.496  62.242  0.00  0.00    +0.000 A 
ATOM     29  C   UNL     1       3.074  47.855  63.348  0.00  0.00    +0.000 A 
ENDBRANCH  22  23
ENDBRANCH  21  22
ENDBRANCH  16  21
ENDBRANCH   1  16
TORSDOF 6
ENDMDL
MODEL 6
REMARK VINA RESULT:      -8.1      4.591      8.202
REMARK  Name = CHEMBL4076989-14.2
REMARK  8 active torsions:
REMARK  status: ('A' for Active; 'I' for Inactive)
REMARK    1  A    between atoms: C_1  and  C_2
REMARK    2  A    between atoms: C_2  and  C_3
REMARK    3  A    between atoms: C_2  and  C_4
REMARK    4  A    between atoms: C_4  and  N_5
REMARK    5  A    between atoms: N_5  and  C_6
REMARK    6  A    between atoms: N_5  and  C_15
REMARK    7  A    between atoms: C_6  and  C_7
REMARK    8  A    between atoms: C_7  and  C_8
REMARK                            x       y       z     vdW  Elec       q    Type
REMARK                         _______ _______ _______ _____ _____    ______ ____
ROOT
ATOM      1  C   UNL     1      -1.829  49.499  69.207  0.00  0.00    +0.000 C 
ATOM      2  C   UNL     1      -3.325  49.578  68.812  0.00  0.00    +0.000 C 
ATOM      3  C   UNL     1      -3.587  49.195  67.360  0.00  0.00    +0.000 C 
ATOM      4  N   UNL     1      -2.769  50.005  66.465  0.00  0.00    +0.000 N 
ATOM      5  C   UNL     1      -3.387  50.770  65.538  0.00  0.00    +0.000 A 
ATOM      6  N   UNL     1      -4.671  51.044  65.436  0.00  0.00    +0.000 NA
ATOM      7  C   UNL     1      -4.746  51.831  64.335  0.00  0.00    +0.000 A 
ATOM      8  N   UNL     1      -5.946  52.280  63.964  0.00  0.00    +0.000 N 
ATOM      9  N   UNL     1      -3.601  52.045  63.701  0.00  0.00    +0.000 NA
ATOM     10  N   UNL     1      -2.748  51.363  64.482  0.00  0.00    +0.000 N 
ATOM     11  C   UNL     1      -1.341  50.031  66.757  0.00  0.00    +0.000 C 
ATOM     12  C   UNL     1      -1.146  50.483  68.206  0.00  0.00    +0.000 C 
ATOM     13  H   UNL     1      -6.736  51.780  64.346  0.00  0.00    +0.000 HD
ATOM     14  H   UNL     1      -6.039  52.553  62.994  0.00  0.00    +0.000 HD
ATOM     15  H   UNL     1      -1.772  51.307  64.227  0.00  0.00    +0.000 HD
ENDROOT
BRANCH   1  16
ATOM     16  N   UNL     1      -1.165  48.139  69.266  0.00  0.00    +0.000 NA
BRANCH  16  17
ATOM     17  C   UNL     1       0.093  48.250  70.085  0.00  0.00    +0.000 C 
BRANCH  17  19
ATOM     18  C   UNL     1       2.300  46.996  70.494  0.00  0.00    +0.000 C 
ATOM     19  C   UNL     1       1.474  47.822  69.508  0.00  0.00    +0.000 C 
ATOM     20  C   UNL     1       1.251  46.965  68.248  0.00  0.00    +0.000 C 
ENDBRANCH  17  19
ENDBRANCH  16  17
BRANCH  16  21
ATOM     21  C   UNL     1      -2.027  47.073  69.860  0.00  0.00    +0.000 C 
BRANCH  21  22
ATOM     22  C   UNL     1      -2.417  45.781  69.083  0.00  0.00    +0.000 C 
BRANCH  22  23
ATOM     23  C   UNL     1      -3.877  45.385  68.990  0.00  0.00    +0.000 A 
ATOM     24  C   UNL     1      -4.699  45.811  67.939  0.00  0.00    +0.000 A 
ATOM     25  C   UNL     1      -6.054  45.477  67.898  0.00  0.00    +0.000 A 
ATOM     26  C   UNL     1      -6.596  44.675  68.896  0.00  0.00    +0.000 A 
ATOM     27 CL   UNL     1      -8.263  44.256  68.840  0.00  0.00    +0.000 Cl
ATOM     28  C   UNL     1      -5.794  44.214  69.937  0.00  0.00    +0.000 A 
ATOM     29  C   UNL     1      -4.440  44.566  69.982  0.00  0.00    +0.000 A 
ENDBRANCH  22  23
ENDBRANCH  21  22
ENDBRANCH  16  21
ENDBRANCH   1  16
TORSDOF 6
ENDMDL
MODEL 7
REMARK VINA RESULT:      -7.9      3.888      6.463
REMARK  Name = CHEMBL4076989-14.2
REMARK  8 active torsions:
REMARK  status: ('A' for Active; 'I' for Inactive)
REMARK    1  A    between atoms: C_1  and  C_2
REMARK    2  A    between atoms: C_2  and  C_3
REMARK    3  A    between atoms: C_2  and  C_4
REMARK    4  A    between atoms: C_4  and  N_5
REMARK    5  A    between atoms: N_5  and  C_6
REMARK    6  A    between atoms: N_5  and  C_15
REMARK    7  A    between atoms: C_6  and  C_7
REMARK    8  A    between atoms: C_7  and  C_8
REMARK                            x       y       z     vdW  Elec       q    Type
REMARK                         _______ _______ _______ _____ _____    ______ ____
ROOT
ATOM      1  C   UNL     1      -2.056  50.042  67.976  0.00  0.00    +0.000 C 
ATOM      2  C   UNL     1      -1.018  49.022  68.508  0.00  0.00    +0.000 C 
ATOM      3  C   UNL     1      -1.286  47.593  68.050  0.00  0.00    +0.000 C 
ATOM      4  N   UNL     1      -2.642  47.191  68.405  0.00  0.00    +0.000 N 
ATOM      5  C   UNL     1      -2.808  46.114  69.205  0.00  0.00    +0.000 A 
ATOM      6  N   UNL     1      -1.891  45.458  69.885  0.00  0.00    +0.000 NA
ATOM      7  C   UNL     1      -2.589  44.470  70.496  0.00  0.00    +0.000 A 
ATOM      8  N   UNL     1      -1.920  43.618  71.275  0.00  0.00    +0.000 N 
ATOM      9  N   UNL     1      -3.884  44.425  70.220  0.00  0.00    +0.000 NA
ATOM     10  N   UNL     1      -4.005  45.479  69.399  0.00  0.00    +0.000 N 
ATOM     11  C   UNL     1      -3.705  48.092  67.980  0.00  0.00    +0.000 C 
ATOM     12  C   UNL     1      -3.408  49.490  68.526  0.00  0.00    +0.000 C 
ATOM     13  H   UNL     1      -0.921  43.586  71.131  0.00  0.00    +0.000 HD
ATOM     14  H   UNL     1      -2.360  42.720  71.432  0.00  0.00    +0.000 HD
ATOM     15  H   UNL     1      -4.901  45.687  68.978  0.00  0.00    +0.000 HD
ENDROOT
BRANCH   1  16
ATOM     16  N   UNL     1      -2.083  50.342  66.492  0.00  0.00    +0.000 NA
BRANCH  16  17
ATOM     17  C   UNL     1      -3.284  51.198  66.193  0.00  0.00    +0.000 C 
BRANCH  17  19
ATOM     18  C   UNL     1      -5.644  50.267  65.779  0.00  0.00    +0.000 C 
ATOM     19  C   UNL     1      -4.346  50.763  65.142  0.00  0.00    +0.000 C 
ATOM     20  C   UNL     1      -4.693  51.966  64.246  0.00  0.00    +0.000 C 
ENDBRANCH  17  19
ENDBRANCH  16  17
BRANCH  16  21
ATOM     21  C   UNL     1      -0.862  51.046  65.997  0.00  0.00    +0.000 C 
BRANCH  21  22
ATOM     22  C   UNL     1      -0.303  50.842  64.557  0.00  0.00    +0.000 C 
BRANCH  22  23
ATOM     23  C   UNL     1       0.661  49.704  64.291  0.00  0.00    +0.000 A 
ATOM     24  C   UNL     1       1.710  49.817  63.369  0.00  0.00    +0.000 A 
ATOM     25  C   UNL     1       2.557  48.740  63.101  0.00  0.00    +0.000 A 
ATOM     26  C   UNL     1       2.386  47.541  63.785  0.00  0.00    +0.000 A 
ATOM     27 CL   UNL     1       3.437  46.219  63.461  0.00  0.00    +0.000 Cl
ATOM     28  C   UNL     1       1.369  47.412  64.727  0.00  0.00    +0.000 A 
ATOM     29  C   UNL     1       0.511  48.490  64.980  0.00  0.00    +0.000 A 
ENDBRANCH  22  23
ENDBRANCH  21  22
ENDBRANCH  16  21
ENDBRANCH   1  16
TORSDOF 6
ENDMDL
MODEL 8
REMARK VINA RESULT:      -7.9      5.805      7.576
REMARK  Name = CHEMBL4076989-14.2
REMARK  8 active torsions:
REMARK  status: ('A' for Active; 'I' for Inactive)
REMARK    1  A    between atoms: C_1  and  C_2
REMARK    2  A    between atoms: C_2  and  C_3
REMARK    3  A    between atoms: C_2  and  C_4
REMARK    4  A    between atoms: C_4  and  N_5
REMARK    5  A    between atoms: N_5  and  C_6
REMARK    6  A    between atoms: N_5  and  C_15
REMARK    7  A    between atoms: C_6  and  C_7
REMARK    8  A    between atoms: C_7  and  C_8
REMARK                            x       y       z     vdW  Elec       q    Type
REMARK                         _______ _______ _______ _____ _____    ______ ____
ROOT
ATOM      1  C   UNL     1      -1.289  48.013  66.449  0.00  0.00    +0.000 C 
ATOM      2  C   UNL     1      -1.904  48.829  65.283  0.00  0.00    +0.000 C 
ATOM      3  C   UNL     1      -2.739  50.015  65.750  0.00  0.00    +0.000 C 
ATOM      4  N   UNL     1      -3.772  49.573  66.680  0.00  0.00    +0.000 N 
ATOM      5  C   UNL     1      -5.066  49.810  66.368  0.00  0.00    +0.000 A 
ATOM      6  N   UNL     1      -5.562  50.232  65.224  0.00  0.00    +0.000 NA
ATOM      7  C   UNL     1      -6.894  50.312  65.460  0.00  0.00    +0.000 A 
ATOM      8  N   UNL     1      -7.685  50.721  64.467  0.00  0.00    +0.000 N 
ATOM      9  N   UNL     1      -7.280  50.009  66.692  0.00  0.00    +0.000 NA
ATOM     10  N   UNL     1      -6.104  49.691  67.254  0.00  0.00    +0.000 N 
ATOM     11  C   UNL     1      -3.314  48.771  67.807  0.00  0.00    +0.000 C 
ATOM     12  C   UNL     1      -2.540  47.567  67.267  0.00  0.00    +0.000 C 
ATOM     13  H   UNL     1      -7.223  51.211  63.714  0.00  0.00    +0.000 HD
ATOM     14  H   UNL     1      -8.582  51.101  64.739  0.00  0.00    +0.000 HD
ATOM     15  H   UNL     1      -6.067  49.445  68.234  0.00  0.00    +0.000 HD
ENDROOT
BRANCH   1  16
ATOM     16  N   UNL     1      -0.211  48.658  67.295  0.00  0.00    +0.000 NA
BRANCH  16  17
ATOM     17  C   UNL     1      -0.124  47.926  68.608  0.00  0.00    +0.000 C 
BRANCH  17  19
ATOM     18  C   UNL     1      -0.949  49.102  70.740  0.00  0.00    +0.000 C 
ATOM     19  C   UNL     1       0.265  48.665  69.921  0.00  0.00    +0.000 C 
ATOM     20  C   UNL     1       1.110  47.722  70.799  0.00  0.00    +0.000 C 
ENDBRANCH  17  19
ENDBRANCH  16  17
BRANCH  16  21
ATOM     21  C   UNL     1       1.140  48.653  66.657  0.00  0.00    +0.000 C 
BRANCH  21  22
ATOM     22  C   UNL     1       1.414  47.984  65.278  0.00  0.00    +0.000 C 
BRANCH  22  23
ATOM     23  C   UNL     1       1.833  48.847  64.105  0.00  0.00    +0.000 A 
ATOM     24  C   UNL     1       1.122  49.994  63.732  0.00  0.00    +0.000 A 
ATOM     25  C   UNL     1       1.496  50.747  62.618  0.00  0.00    +0.000 A 
ATOM     26  C   UNL     1       2.617  50.380  61.882  0.00  0.00    +0.000 A 
ATOM     27 CL   UNL     1       3.083  51.315  60.516  0.00  0.00    +0.000 Cl
ATOM     28  C   UNL     1       3.359  49.260  62.249  0.00  0.00    +0.000 A 
ATOM     29  C   UNL     1       2.970  48.498  63.357  0.00  0.00    +0.000 A 
ENDBRANCH  22  23
ENDBRANCH  21  22
ENDBRANCH  16  21
ENDBRANCH   1  16
TORSDOF 6
ENDMDL
MODEL 9
REMARK VINA RESULT:      -7.8      6.369      9.941
REMARK  Name = CHEMBL4076989-14.2
REMARK  8 active torsions:
REMARK  status: ('A' for Active; 'I' for Inactive)
REMARK    1  A    between atoms: C_1  and  C_2
REMARK    2  A    between atoms: C_2  and  C_3
REMARK    3  A    between atoms: C_2  and  C_4
REMARK    4  A    between atoms: C_4  and  N_5
REMARK    5  A    between atoms: N_5  and  C_6
REMARK    6  A    between atoms: N_5  and  C_15
REMARK    7  A    between atoms: C_6  and  C_7
REMARK    8  A    between atoms: C_7  and  C_8
REMARK                            x       y       z     vdW  Elec       q    Type
REMARK                         _______ _______ _______ _____ _____    ______ ____
ROOT
ATOM      1  C   UNL     1      -1.699  49.400  64.937  0.00  0.00    +0.000 C 
ATOM      2  C   UNL     1      -0.715  48.211  64.799  0.00  0.00    +0.000 C 
ATOM      3  C   UNL     1       0.748  48.622  64.908  0.00  0.00    +0.000 C 
ATOM      4  N   UNL     1       1.056  49.667  63.939  0.00  0.00    +0.000 N 
ATOM      5  C   UNL     1       2.020  49.434  63.020  0.00  0.00    +0.000 A 
ATOM      6  N   UNL     1       2.620  48.296  62.743  0.00  0.00    +0.000 NA
ATOM      7  C   UNL     1       3.499  48.625  61.767  0.00  0.00    +0.000 A 
ATOM      8  N   UNL     1       4.273  47.660  61.266  0.00  0.00    +0.000 N 
ATOM      9  N   UNL     1       3.532  49.906  61.429  0.00  0.00    +0.000 NA
ATOM     10  N   UNL     1       2.584  50.405  62.236  0.00  0.00    +0.000 N 
ATOM     11  C   UNL     1       0.176  50.830  63.956  0.00  0.00    +0.000 C 
ATOM     12  C   UNL     1      -1.267  50.353  63.779  0.00  0.00    +0.000 C 
ATOM     13  H   UNL     1       4.357  46.829  61.835  0.00  0.00    +0.000 HD
ATOM     14  H   UNL     1       5.128  47.962  60.819  0.00  0.00    +0.000 HD
ATOM     15  H   UNL     1       2.398  51.399  62.237  0.00  0.00    +0.000 HD
ENDROOT
BRANCH   1  16
ATOM     16  N   UNL     1      -1.815  50.093  66.279  0.00  0.00    +0.000 NA
BRANCH  16  17
ATOM     17  C   UNL     1      -3.068  50.928  66.286  0.00  0.00    +0.000 C 
BRANCH  17  19
ATOM     18  C   UNL     1      -5.472  50.067  66.585  0.00  0.00    +0.000 C 
ATOM     19  C   UNL     1      -4.371  50.437  65.591  0.00  0.00    +0.000 C 
ATOM     20  C   UNL     1      -4.914  51.558  64.685  0.00  0.00    +0.000 C 
ENDBRANCH  17  19
ENDBRANCH  16  17
BRANCH  16  21
ATOM     21  C   UNL     1      -1.863  49.154  67.440  0.00  0.00    +0.000 C 
BRANCH  21  22
ATOM     22  C   UNL     1      -1.355  49.549  68.859  0.00  0.00    +0.000 C 
BRANCH  22  23
ATOM     23  C   UNL     1      -0.212  48.772  69.479  0.00  0.00    +0.000 A 
ATOM     24  C   UNL     1      -0.037  48.682  70.866  0.00  0.00    +0.000 A 
ATOM     25  C   UNL     1       1.052  48.004  71.417  0.00  0.00    +0.000 A 
ATOM     26  C   UNL     1       1.964  47.371  70.580  0.00  0.00    +0.000 A 
ATOM     27 CL   UNL     1       3.299  46.527  71.260  0.00  0.00    +0.000 Cl
ATOM     28  C   UNL     1       1.798  47.420  69.199  0.00  0.00    +0.000 A 
ATOM     29  C   UNL     1       0.714  48.116  68.650  0.00  0.00    +0.000 A 
ENDBRANCH  22  23
ENDBRANCH  21  22
ENDBRANCH  16  21
ENDBRANCH   1  16
TORSDOF 6
ENDMDL
