@<TRIPOS>MOLECULE
3fy1
59 60 2 0 0
SMALL
AMBER ff99SB


@<TRIPOS>ATOM
      1 C1         -0.0980   49.5590   66.5500 C.3       1 NAA    0.0682
      2 C2         -0.3560   51.0420   66.1490 C.3       1 NAA    0.0743
      3 C3         -0.5390   51.1510   64.6130 C.3       1 NAA    0.1034
      4 C4          0.7130   50.4210   63.9230 C.3       1 NAA    0.1169
      5 C5          0.7920   48.9320   64.4060 C.3       1 NAA    0.1095
      6 C6          1.9760   48.1720   63.8220 C.3       1 NAA    0.0720
      7 C7         -1.5470   52.3280   67.8610 C.2       1 NAA    0.2089
      8 C8         -2.8550   52.5940   68.5950 C.3       1 NAA    0.0127
      9 N2         -1.5760   51.4050   66.9230 N.am      1 NAA   -0.3078
     10 O3         -1.7650   50.5360   64.2170 O.3       1 NAA   -0.3883
     11 O4          0.6700   50.4310   62.5090 O.3       1 NAA   -0.3417
     12 O5          0.9860   48.9740   65.8180 O.3       1 NAA   -0.3710
     13 O6          1.9690   46.8350   64.3950 O.3       1 NAA   -0.3936
     14 O7         -0.5200   52.9520   68.1380 O.2       1 NAA   -0.2781
     15 H12         0.1373   49.5203   67.6136 H         1 NAA    0.0588
     16 H13        -1.0029   48.9798   66.3662 H         1 NAA    0.0588
     17 H2          0.4820   51.6624   66.4667 H         1 NAA    0.0556
     18 H3         -0.5506   52.2017   64.3232 H         1 NAA    0.0650
     19 H4          1.6225   50.9312   64.2402 H         1 NAA    0.0662
     20 H5         -0.1375   48.4132   64.1717 H         1 NAA    0.0657
     21 H62         1.8801   48.1117   62.7379 H         1 NAA    0.0592
     22 H63         2.9047   48.6798   64.0823 H         1 NAA    0.0592
     23 HN2        -2.4457   50.9318   66.7234 H         1 NAA    0.1498
     24 H81        -2.7014   53.3733   69.3415 H         1 NAA    0.0328
     25 H82        -3.6122   52.9190   67.8814 H         1 NAA    0.0328
     26 H83        -3.1879   51.6801   69.0870 H         1 NAA    0.0328
     27 HO3        -1.8676   50.6094   63.2653 H         1 NAA    0.2107
     28 HO6         2.7071   46.3318   64.0434 H         1 NAA    0.2102
     29 C1          1.2380   51.5650   61.8910 C.3       2 NA1    0.1791
     30 C2          1.8330   51.1340   60.5210 C.3       2 NA1    0.1019
     31 C3          2.0200   52.2860   59.5380 C.3       2 NA1    0.1057
     32 C4          0.7270   53.1330   59.4940 C.3       2 NA1    0.1104
     33 C5          0.3920   53.6480   60.9610 C.3       2 NA1    0.1125
     34 C6         -0.8480   54.6040   61.0230 C.3       2 NA1    0.0752
     35 C7          3.3150   49.1500   60.6760 C.2       2 NA1    0.2090
     36 C8          4.7500   48.7660   61.0300 C.3       2 NA1    0.0127
     37 N2          3.0890   50.4410   60.7820 N.am      2 NA1   -0.3050
     38 O3          3.1140   53.0770   59.9670 O.3       2 NA1   -0.3882
     39 O4          0.9440   54.1890   58.5970 O.3       2 NA1   -0.3875
     40 O5          0.0780   52.4230   61.7050 O.3       2 NA1   -0.3421
     41 O6         -1.9550   54.1590   60.1980 O.3       2 NA1   -0.3819
     42 C9         -2.9240   53.4480   60.8100 C.3       2 NA1    0.0356
     43 O7          2.4860   48.3320   60.3460 O.2       2 NA1   -0.2781
     44 H1          1.9889   52.0355   62.5257 H         2 NA1    0.0945
     45 H2          1.1455   50.4189   60.0693 H         2 NA1    0.0586
     46 H3          2.2272   51.8868   58.5451 H         2 NA1    0.0651
     47 H4         -0.0956   52.5162   59.1321 H         2 NA1    0.0658
     48 H5          1.2642   54.1369   61.3949 H         2 NA1    0.0658
     49 H62        -1.1884   54.6629   62.0568 H         2 NA1    0.0595
     50 H63        -0.5427   55.5979   60.6959 H         2 NA1    0.0595
     51 HN2         3.8679   51.0132   61.0753 H         2 NA1    0.1500
     52 H81         4.8751   47.6884   60.9236 H         2 NA1    0.0328
     53 H82         5.4392   49.2795   60.3596 H         2 NA1    0.0328
     54 H83         4.9604   49.0563   62.0593 H         2 NA1    0.0328
     55 HO3         3.2416   53.8060   59.3555 H         2 NA1    0.2107
     56 HO4         0.1558   54.7348   58.5479 H         2 NA1    0.2107
     57 H91        -3.6904   53.1773   60.0838 H         2 NA1    0.0530
     58 H92        -2.4943   52.5428   61.2389 H         2 NA1    0.0530
     59 H93        -3.3703   54.0490   61.6023 H         2 NA1    0.0530
@<TRIPOS>BOND
     1    1    2 1
     2    1   12 1
     3    2    3 1
     4    2    9 1
     5    3    4 1
     6    3   10 1
     7    4    5 1
     8    4   11 1
     9    5    6 1
    10    5   12 1
    11    6   13 1
    12    7    8 1
    13    7    9 am
    14    7   14 2
    15   11   29 1
    16   29   30 1
    17   29   40 1
    18   30   31 1
    19   30   37 1
    20   31   32 1
    21   31   38 1
    22   32   33 1
    23   32   39 1
    24   33   34 1
    25   33   40 1
    26   34   41 1
    27   35   36 1
    28   35   37 am
    29   35   43 2
    30   41   42 1
    31   15    1 1
    32   16    1 1
    33   17    2 1
    34   18    3 1
    35   19    4 1
    36   20    5 1
    37   21    6 1
    38   22    6 1
    39   23    9 1
    40   44   29 1
    41   45   30 1
    42   46   31 1
    43   47   32 1
    44   48   33 1
    45   49   34 1
    46   50   34 1
    47   51   37 1
    48   24    8 1
    49   25    8 1
    50   26    8 1
    51   52   36 1
    52   53   36 1
    53   54   36 1
    54   27   10 1
    55   55   38 1
    56   56   39 1
    57   28   13 1
    58   57   42 1
    59   58   42 1
    60   59   42 1
@<TRIPOS>SUBSTRUCTURE
     1 NAA     1 RESIDUE           4 C     NAA     1 ROOT
     2 NA1    29 RESIDUE           4 C     NA1     1
