@<TRIPOS>MOLECULE
3fy1
88 91 3 0 0
SMALL
AMBER ff99SB


@<TRIPOS>ATOM
      1 C1          0.3070   48.2770   49.0660 C.3       1 NAA    0.1790
      2 C2          0.6710   49.7810   49.2560 C.3       1 NAA    0.1019
      3 C3          0.8900   50.0890   50.7570 C.3       1 NAA    0.1061
      4 C4         -0.3770   49.5380   51.5700 C.3       1 NAA    0.1171
      5 C5         -0.5630   48.0110   51.2860 C.3       1 NAA    0.1126
      6 C6         -1.7670   47.4100   52.0030 C.3       1 NAA    0.0721
      7 C7          1.8990   50.7770   47.3820 C.2       1 NAA    0.2090
      8 C8          3.2070   50.9220   46.5990 C.3       1 NAA    0.0127
      9 N2          1.9010   49.9950   48.4410 N.am      1 NAA   -0.3050
     10 O3          2.1120   49.5030   51.2260 O.3       1 NAA   -0.3882
     11 O4         -0.2550   49.7340   52.9660 O.3       1 NAA   -0.3417
     12 O5         -0.8020   47.8710   49.8790 O.3       1 NAA   -0.3421
     13 O6         -1.7570   45.9940   51.6830 O.3       1 NAA   -0.3936
     14 O7          0.8840   51.3760   47.0360 O.2       1 NAA   -0.2781
     15 H1          1.1745   47.6658   49.3151 H         1 NAA    0.0945
     16 H2         -0.1359   50.4036   48.8695 H         1 NAA    0.0586
     17 H3          0.9471   51.1696   50.8880 H         1 NAA    0.0651
     18 H4         -1.2660   50.0649   51.2233 H         1 NAA    0.0662
     19 H5          0.3415   47.4698   51.5637 H         1 NAA    0.0658
     20 H62        -2.6884   47.8719   51.6483 H         1 NAA    0.0592
     21 H63        -1.6691   47.5504   53.0795 H         1 NAA    0.0592
     22 HN2         2.7563   49.5288   48.7078 H         1 NAA    0.1500
     23 HO3         2.2397   48.6495   50.8054 H         1 NAA    0.2107
     24 HO6        -1.8865   45.8784   50.7388 H         1 NAA    0.2102
     25 H81         3.0534   51.5951   45.7555 H         1 NAA    0.0328
     26 H82         3.9783   51.3292   47.2528 H         1 NAA    0.0328
     27 H83         3.5208   49.9449   46.2317 H         1 NAA    0.0328
     28 C1         -0.7390   50.9770   53.4260 C.3       2 NA1    0.1791
     29 C2         -1.3580   50.7790   54.8370 C.3       2 NA1    0.1019
     30 C3         -1.4510   52.0610   55.6590 C.3       2 NA1    0.1057
     31 C4         -0.1480   52.8840   55.5500 C.3       2 NA1    0.1104
     32 C5          0.1660   53.1610   54.0130 C.3       2 NA1    0.1125
     33 C6          1.4220   54.0710   53.8010 C.3       2 NA1    0.0752
     34 C7         -2.9830   48.9040   54.9800 C.2       2 NA1    0.2090
     35 C8         -4.4550   48.5630   54.7310 C.3       2 NA1    0.0127
     36 N2         -2.6750   50.1530   54.6940 N.am      2 NA1   -0.3050
     37 O3         -2.5570   52.8260   55.2110 O.3       2 NA1   -0.3882
     38 O4         -0.3390   54.0670   56.2920 O.3       2 NA1   -0.3875
     39 O5          0.4420   51.8240   53.4560 O.3       2 NA1   -0.3421
     40 O6          2.5230   53.7060   54.6610 O.3       2 NA1   -0.3819
     41 C9          3.3660   52.7430   54.2220 C.3       2 NA1    0.0356
     42 O7         -2.1930   48.0840   55.3930 O.2       2 NA1   -0.2781
     43 H1         -1.4806   51.3784   52.7354 H         2 NA1    0.0945
     44 H2         -0.7199   50.0835   55.3822 H         2 NA1    0.0586
     45 H3         -1.6102   51.7953   56.7041 H         2 NA1    0.0651
     46 H4          0.6729   52.3153   55.9869 H         2 NA1    0.0658
     47 H5         -0.7038   53.6001   53.5243 H         2 NA1    0.0658
     48 H62         1.7454   53.9835   52.7638 H         2 NA1    0.0595
     49 H63         1.1462   55.1067   53.9995 H         2 NA1    0.0595
     50 HN2        -3.4204   50.7363   54.3414 H         2 NA1    0.1500
     51 HO4        -0.0216   54.8175   55.7845 H         2 NA1    0.2107
     52 H81        -4.6352   47.5192   54.9882 H         2 NA1    0.0328
     53 H82        -5.0854   49.2031   55.3482 H         2 NA1    0.0328
     54 H83        -4.6925   48.7243   53.6795 H         2 NA1    0.0328
     55 HO3        -3.3689   52.3408   55.3751 H         2 NA1    0.2107
     56 H91         4.1427   52.5719   54.9674 H         2 NA1    0.0530
     57 H92         2.8095   51.8200   54.0590 H         2 NA1    0.0530
     58 H93         3.8247   53.0609   53.2857 H         2 NA1    0.0530
     59 C1         -0.5060   45.4130   45.2720 C.3       3 AMI    0.0999
     60 C2         -1.2770   44.8060   46.4720 C.3       3 AMI    0.1098
     61 C3         -1.3230   45.9330   47.5120 C.3       3 AMI    0.1057
     62 C4         -0.0210   46.7290   47.2670 C.3       3 AMI    0.0964
     63 C5         -0.0850   46.8100   45.7450 C.3       3 AMI    0.0402
     64 C6          1.2630   47.2800   45.0820 C.3       3 AMI    0.0511
     65 C7         -2.6560   44.9630   44.6780 C.2       3 AMI    0.2290
     66 C8         -5.0520   44.4010   44.4740 C.3       3 AMI    0.0030
     67 C9         -3.6690   45.0480   42.4360 C.3       3 AMI    0.0030
     68 N2         -2.5680   44.5020   45.9320 N.2       3 AMI   -0.2396
     69 N7         -3.7480   44.8030   43.8960 N.pl3     3 AMI   -0.3023
     70 O3         -1.3540   45.3750   48.8280 O.3       3 AMI   -0.3881
     71 O4         -0.0260   48.0750   47.7110 O.3       3 AMI   -0.3441
     72 O6          2.3390   46.3920   45.4910 O.3       3 AMI   -0.3959
     73 O7         -1.4800   45.4760   44.1850 O.3       3 AMI   -0.3114
     74 H1          0.3571   44.8048   45.0016 H         3 AMI    0.0639
     75 H2         -0.7823   43.9164   46.8618 H         3 AMI    0.0610
     76 H3         -2.1937   46.5676   47.3471 H         3 AMI    0.0652
     77 H4          0.8603   46.1879   47.6113 H         3 AMI    0.0638
     78 H5         -0.8682   47.5167   45.4706 H         3 AMI    0.0382
     79 H62         1.1628   47.2536   43.9969 H         3 AMI    0.0569
     80 H63         1.4899   48.2971   45.4014 H         3 AMI    0.0569
     81 HO6         3.0570   46.4449   44.8560 H         3 AMI    0.2101
     82 HO3        -1.1789   46.0645   49.4726 H         3 AMI    0.2107
     83 H81        -5.8444   45.0152   44.0463 H         3 AMI    0.0433
     84 H82        -5.2424   43.3523   44.2459 H         3 AMI    0.0433
     85 H83        -5.0284   44.5393   45.5549 H         3 AMI    0.0433
     86 H91        -4.6562   44.9207   41.9918 H         3 AMI    0.0433
     87 H92        -2.9742   44.3389   41.9859 H         3 AMI    0.0433
     88 H93        -3.3181   46.0643   42.2566 H         3 AMI    0.0433
@<TRIPOS>BOND
     1    1    2 1
     2    1   12 1
     3    1   71 1
     4    2    3 1
     5    2    9 1
     6    3    4 1
     7    3   10 1
     8    4    5 1
     9    4   11 1
    10    5    6 1
    11    5   12 1
    12    6   13 1
    13    7    8 1
    14    7    9 am
    15    7   14 2
    16   11   28 1
    17   28   29 1
    18   28   39 1
    19   29   30 1
    20   29   36 1
    21   30   31 1
    22   30   37 1
    23   31   32 1
    24   31   38 1
    25   32   33 1
    26   32   39 1
    27   33   40 1
    28   34   35 1
    29   34   36 am
    30   34   42 2
    31   40   41 1
    32   59   60 1
    33   59   63 1
    34   59   73 1
    35   60   61 1
    36   60   68 1
    37   61   62 1
    38   61   70 1
    39   62   63 1
    40   62   71 1
    41   63   64 1
    42   64   72 1
    43   65   68 2
    44   65   69 2
    45   65   73 1
    46   66   69 1
    47   67   69 1
    48   15    1 1
    49   16    2 1
    50   17    3 1
    51   18    4 1
    52   19    5 1
    53   20    6 1
    54   21    6 1
    55   22    9 1
    56   43   28 1
    57   44   29 1
    58   45   30 1
    59   46   31 1
    60   47   32 1
    61   48   33 1
    62   49   33 1
    63   50   36 1
    64   74   59 1
    65   75   60 1
    66   76   61 1
    67   77   62 1
    68   78   63 1
    69   79   64 1
    70   80   64 1
    71   81   72 1
    72   82   70 1
    73   51   38 1
    74   23   10 1
    75   24   13 1
    76   25    8 1
    77   26    8 1
    78   27    8 1
    79   52   35 1
    80   53   35 1
    81   54   35 1
    82   55   37 1
    83   83   66 1
    84   84   66 1
    85   85   66 1
    86   86   67 1
    87   87   67 1
    88   88   67 1
    89   56   41 1
    90   57   41 1
    91   58   41 1
@<TRIPOS>SUBSTRUCTURE
     1 NAA     1 RESIDUE           4 D     NAA     2 ROOT
     2 NA1    28 RESIDUE           4 D     NA1     1
     3 AMI    59 RESIDUE           4 B     AMI     1
