MODEL        1
REMARK  Name = CHEMBL1215474-700
REMARK  3 active torsions:
REMARK  status: ('A' for Active; 'I' for Inactive)
REMARK    1  A    between atoms: C_1  and  C_2
REMARK    2  A    between atoms: C_10  and  C_11
REMARK    3  A    between atoms: C_11  and  N_12
REMARK                            x       y       z     vdW  Elec       q    Type
REMARK                         _______ _______ _______ _____ _____    ______ ____
ROOT
ATOM      1  C   UNL     1      -1.620  -2.421  -0.159  0.00  0.00    +0.000 C 
ENDROOT
BRANCH   1   2
ATOM      2  N   UNL     1      -3.083  -2.502  -0.075  0.00  0.00    +0.000 NA
ATOM      3  C   UNL     1      -3.839  -2.120  -1.269  0.00  0.00    +0.000 C 
ATOM      4  C   UNL     1      -4.403  -0.674  -1.322  0.00  0.00    +0.000 C 
ATOM      5  N   UNL     1      -5.075  -0.246  -0.074  0.00  0.00    +0.000 N 
ATOM      6  C   UNL     1      -5.414   1.138  -0.086  0.00  0.00    +0.000 A 
ATOM      7  C   UNL     1      -6.335   1.640   0.846  0.00  0.00    +0.000 A 
ATOM      8  C   UNL     1      -6.665   3.000   0.870  0.00  0.00    +0.000 A 
ATOM      9  C   UNL     1      -6.060   3.846  -0.045  0.00  0.00    +0.000 A 
ATOM     10  C   UNL     1      -5.187   3.276  -0.953  0.00  0.00    +0.000 A 
ATOM     11  N   UNL     1      -4.856   1.967  -0.992  0.00  0.00    +0.000 NA
ATOM     12  C   UNL     1      -4.358  -0.603   1.167  0.00  0.00    +0.000 C 
ATOM     13  C   UNL     1      -3.743  -2.029   1.146  0.00  0.00    +0.000 C 
ENDBRANCH   1   2
BRANCH   1  23
ATOM     14  C   UNL     1      -2.203  -5.503   0.698  0.00  0.00    +0.000 C 
ATOM     15  C   UNL     1      -1.332  -4.994  -0.389  0.00  0.00    +0.000 A 
ATOM     16  N   UNL     1      -0.633  -5.869  -1.175  0.00  0.00    +0.000 N 
ATOM     17  C   UNL     1       0.128  -5.198  -2.093  0.00  0.00    +0.000 A 
ATOM     18  C   UNL     1       0.985  -5.724  -3.074  0.00  0.00    +0.000 A 
ATOM     19  C   UNL     1       1.692  -4.834  -3.878  0.00  0.00    +0.000 A 
ATOM     20  C   UNL     1       1.541  -3.461  -3.687  0.00  0.00    +0.000 A 
ATOM     21  C   UNL     1       0.672  -2.948  -2.699  0.00  0.00    +0.000 A 
ATOM     22  C   UNL     1      -0.076  -3.830  -1.880  0.00  0.00    +0.000 A 
ATOM     23  C   UNL     1      -1.051  -3.692  -0.805  0.00  0.00    +0.000 A 
ATOM     24  H   UNL     1      -0.655  -6.876  -1.088  0.00  0.00    +0.000 HD
ENDBRANCH   1  23
TORSDOF 2
ENDMDL
MODEL        2
REMARK  Name = CHEMBL1215473-210
REMARK  4 active torsions:
REMARK  status: ('A' for Active; 'I' for Inactive)
REMARK    1  A    between atoms: N_9  and  C_10
REMARK    2  A    between atoms: C_10  and  C_11
REMARK    3  A    between atoms: C_11  and  O_12
REMARK    4  A    between atoms: O_12  and  C_13
REMARK                            x       y       z     vdW  Elec       q    Type
REMARK                         _______ _______ _______ _____ _____    ______ ____
ROOT
ATOM      1  N   UNL     1       1.383   0.609  -0.705  0.00  0.00    +0.000 N 
ATOM      2  C   UNL     1       2.566   0.328  -0.171  0.00  0.00    +0.000 A 
ATOM      3  N   UNL     1       3.154   1.014   0.803  0.00  0.00    +0.000 NA
ATOM      4  N   UNL     1       4.308   0.342   0.926  0.00  0.00    +0.000 N 
ATOM      5  C   UNL     1       4.374  -0.723   0.066  0.00  0.00    +0.000 A 
ATOM      6  N   UNL     1       5.460  -1.524  -0.053  0.00  0.00    +0.000 N 
ATOM      7  C   UNL     1       6.532  -1.630   0.937  0.00  0.00    +0.000 C 
ATOM      8  C   UNL     1       7.910  -1.691   0.229  0.00  0.00    +0.000 C 
ATOM      9  N   UNL     1       8.025  -2.711  -0.843  0.00  0.00    +0.000 NA
ATOM     10  C   UNL     1       6.893  -2.509  -1.785  0.00  0.00    +0.000 C 
ATOM     11  C   UNL     1       5.492  -2.519  -1.129  0.00  0.00    +0.000 C 
ATOM     12  N   UNL     1       3.260  -0.746  -0.631  0.00  0.00    +0.000 NA
ATOM     13  H   UNL     1       0.781   1.241  -0.197  0.00  0.00    +0.000 HD
ATOM     14  H   UNL     1       0.915  -0.125  -1.217  0.00  0.00    +0.000 HD
ATOM     15  H   UNL     1       5.011   0.682   1.564  0.00  0.00    +0.000 HD
ENDROOT
BRANCH   9  16
ATOM     16  C   UNL     1       8.069  -4.072  -0.271  0.00  0.00    +0.000 C 
BRANCH  16  17
ATOM     17  C   UNL     1       8.280  -5.167  -1.324  0.00  0.00    +0.000 C 
BRANCH  17  18
ATOM     18  O   UNL     1       8.320  -6.447  -0.686  0.00  0.00    +0.000 OA
BRANCH  18  19
ATOM     19  C   UNL     1       8.471  -7.516  -1.530  0.00  0.00    +0.000 A 
ATOM     20  C   UNL     1       8.584  -7.448  -2.922  0.00  0.00    +0.000 A 
ATOM     21  C   UNL     1       8.758  -8.611  -3.676  0.00  0.00    +0.000 A 
ATOM     22  C   UNL     1       8.821  -9.845  -3.035  0.00  0.00    +0.000 A 
ATOM     23 BR   UNL     1       9.084 -11.414  -4.056  0.00  0.00    +0.000 Br
ATOM     24  C   UNL     1       8.695  -9.928  -1.653  0.00  0.00    +0.000 A 
ATOM     25  C   UNL     1       8.519  -8.765  -0.902  0.00  0.00    +0.000 A 
ENDBRANCH  18  19
ENDBRANCH  17  18
ENDBRANCH  16  17
ENDBRANCH   9  16
TORSDOF 4
ENDMDL
MODEL        3
REMARK  Name = CHEMBL4091907-1545
REMARK  6 active torsions:
REMARK  status: ('A' for Active; 'I' for Inactive)
REMARK    1  A    between atoms: C_1  and  N_2
REMARK    2  A    between atoms: N_2  and  C_3
REMARK    3  A    between atoms: N_2  and  C_14
REMARK    4  A    between atoms: C_3  and  C_4
REMARK    5  A    between atoms: C_4  and  C_5
REMARK    6  A    between atoms: C_8  and  C_9
REMARK                            x       y       z     vdW  Elec       q    Type
REMARK                         _______ _______ _______ _____ _____    ______ ____
ROOT
ATOM      1  C   UNL     1       3.146  -0.298   1.439  0.00  0.00    +0.000 C 
ATOM      2  C   UNL     1       4.679  -0.275   1.665  0.00  0.00    +0.000 C 
ATOM      3  C   UNL     1       5.387  -1.283   0.761  0.00  0.00    +0.000 C 
ATOM      4  N   UNL     1       4.907  -2.631   1.084  0.00  0.00    +0.000 N 
ATOM      5  C   UNL     1       5.745  -3.471   1.736  0.00  0.00    +0.000 A 
ATOM      6  N   UNL     1       6.956  -3.252   2.186  0.00  0.00    +0.000 NA
ATOM      7  C   UNL     1       7.349  -4.455   2.684  0.00  0.00    +0.000 A 
ATOM      8  N   UNL     1       8.560  -4.575   3.219  0.00  0.00    +0.000 N 
ATOM      9  N   UNL     1       6.444  -5.425   2.613  0.00  0.00    +0.000 NA
ATOM     10  N   UNL     1       5.445  -4.792   1.977  0.00  0.00    +0.000 N 
ATOM     11  C   UNL     1       3.452  -2.803   1.033  0.00  0.00    +0.000 C 
ATOM     12  C   UNL     1       2.755  -1.734   1.886  0.00  0.00    +0.000 C 
ATOM     13  H   UNL     1       9.025  -3.722   3.492  0.00  0.00    +0.000 HD
ATOM     14  H   UNL     1       8.718  -5.367   3.826  0.00  0.00    +0.000 HD
ATOM     15  H   UNL     1       4.620  -5.308   1.713  0.00  0.00    +0.000 HD
ENDROOT
BRANCH   1  17
ATOM     16  C   UNL     1       1.158  -0.095   0.012  0.00  0.00    +0.000 C 
ATOM     17  N   UNL     1       2.634   0.028   0.067  0.00  0.00    +0.000 NA
BRANCH  17  18
ATOM     18  C   UNL     1       2.943   1.397  -0.430  0.00  0.00    +0.000 C 
BRANCH  18  19
ATOM     19  C   UNL     1       4.400   1.704  -0.790  0.00  0.00    +0.000 C 
BRANCH  19  20
ATOM     20  C   UNL     1       4.592   3.094  -1.335  0.00  0.00    +0.000 A 
ATOM     21  C   UNL     1       4.670   4.187  -0.461  0.00  0.00    +0.000 A 
ATOM     22  C   UNL     1       4.915   5.467  -0.956  0.00  0.00    +0.000 A 
ATOM     23  C   UNL     1       5.081   5.689  -2.330  0.00  0.00    +0.000 A 
ATOM     24  C   UNL     1       4.985   4.581  -3.190  0.00  0.00    +0.000 A 
ATOM     25  C   UNL     1       4.742   3.298  -2.705  0.00  0.00    +0.000 A 
BRANCH  23  26
ATOM     26  C   UNL     1       5.323   7.064  -2.893  0.00  0.00    +0.000 C 
ATOM     27  C   UNL     1       6.594   7.318  -3.672  0.00  0.00    +0.000 C 
ATOM     28  C   UNL     1       6.391   7.975  -2.341  0.00  0.00    +0.000 C 
ENDBRANCH  23  26
ENDBRANCH  19  20
ENDBRANCH  18  19
ENDBRANCH  17  18
ENDBRANCH   1  17
TORSDOF 5
ENDMDL
MODEL        4
REMARK  Name = CHEMBL2413400-4000
REMARK  10 active torsions:
REMARK  status: ('A' for Active; 'I' for Inactive)
REMARK    1  A    between atoms: C_1  and  N_2
REMARK    2  A    between atoms: N_2  and  C_3
REMARK    3  A    between atoms: N_2  and  C_4
REMARK    4  A    between atoms: C_7  and  C_8
REMARK    5  A    between atoms: C_9  and  N_10
REMARK    6  A    between atoms: C_9  and  C_19
REMARK    7  A    between atoms: C_11  and  C_13
REMARK    8  A    between atoms: N_21  and  N_22
REMARK    9  A    between atoms: N_22  and  C_23
REMARK   10  A    between atoms: C_23  and  N_24
REMARK                            x       y       z     vdW  Elec       q    Type
REMARK                         _______ _______ _______ _____ _____    ______ ____
ROOT
ATOM      1  C   UNL     1       5.438   2.199   4.193  0.00  0.00    +0.000 C 
ATOM      2  C   UNL     1       4.939   2.097   5.440  0.00  0.00    +0.000 C 
ENDROOT
BRANCH   1   6
ATOM      3  C   UNL     1       4.313   0.785   0.267  0.00  0.00    +0.000 A 
ATOM      4  C   UNL     1       3.906   2.036   0.755  0.00  0.00    +0.000 A 
ATOM      5  C   UNL     1       4.199   2.463   2.060  0.00  0.00    +0.000 A 
ATOM      6  C   UNL     1       4.935   1.657   2.925  0.00  0.00    +0.000 A 
ATOM      7  C   UNL     1       5.329   0.396   2.478  0.00  0.00    +0.000 A 
ATOM      8  C   UNL     1       5.022  -0.027   1.171  0.00  0.00    +0.000 A 
BRANCH   3  10
ATOM      9  C   UNL     1       3.474   1.314  -1.996  0.00  0.00    +0.000 C 
ATOM     10  N   UNL     1       4.078   0.376  -1.053  0.00  0.00    +0.000 N 
ATOM     11  C   UNL     1       3.780  -1.037  -1.271  0.00  0.00    +0.000 C 
ENDBRANCH   3  10
ENDBRANCH   1   6
BRANCH   2  12
ATOM     12  N   UNL     1       3.743   1.481   5.785  0.00  0.00    +0.000 N 
ATOM     13  C   UNL     1       2.528   1.888   5.258  0.00  0.00    +0.000 C 
ATOM     14  O   UNL     1       2.375   2.891   4.571  0.00  0.00    +0.000 OA
ATOM     15  H   UNL     1       3.695   1.086   6.716  0.00  0.00    +0.000 HD
BRANCH  13  16
ATOM     16  C   UNL     1       1.327   1.118   5.686  0.00  0.00    +0.000 A 
ATOM     17  C   UNL     1       0.096   1.788   5.711  0.00  0.00    +0.000 A 
ATOM     18  C   UNL     1      -1.080   1.093   5.990  0.00  0.00    +0.000 A 
ATOM     19  C   UNL     1      -1.031  -0.276   6.244  0.00  0.00    +0.000 A 
ATOM     20  C   UNL     1       0.194  -0.945   6.248  0.00  0.00    +0.000 A 
ATOM     21  C   UNL     1       1.378  -0.252   5.974  0.00  0.00    +0.000 A 
ENDBRANCH  13  16
ENDBRANCH   2  12
BRANCH   2  22
ATOM     22  C   UNL     1       5.793   2.670   6.542  0.00  0.00    +0.000 C 
ATOM     23  O   UNL     1       7.005   2.835   6.433  0.00  0.00    +0.000 OA
ATOM     24  N   UNL     1       5.075   3.055   7.664  0.00  0.00    +0.000 N 
ATOM     25  H   UNL     1       4.095   3.302   7.542  0.00  0.00    +0.000 HD
BRANCH  24  26
ATOM     26  N   UNL     1       5.774   3.811   8.621  0.00  0.00    +0.000 N 
ATOM     27  H   UNL     1       6.652   4.237   8.318  0.00  0.00    +0.000 HD
BRANCH  26  28
ATOM     28  C   UNL     1       5.489   3.750   9.950  0.00  0.00    +0.000 C 
ATOM     29  S   UNL     1       6.394   4.548  11.088  0.00  0.00    +0.000 S 
BRANCH  28  30
ATOM     30  N   UNL     1       4.400   3.026  10.306  0.00  0.00    +0.000 N 
ATOM     31  H   UNL     1       4.147   2.254   9.708  0.00  0.00    +0.000 HD
ATOM     32  H   UNL     1       4.260   2.887  11.299  0.00  0.00    +0.000 HD
ENDBRANCH  28  30
ENDBRANCH  26  28
ENDBRANCH  24  26
ENDBRANCH   2  22
TORSDOF 8
ENDMDL
MODEL        5
REMARK  Name = CHEMBL4082060-8.7
REMARK  6 active torsions:
REMARK  status: ('A' for Active; 'I' for Inactive)
REMARK    1  A    between atoms: C_9  and  N_10
REMARK    2  A    between atoms: N_10  and  C_11
REMARK    3  A    between atoms: N_10  and  C_20
REMARK    4  A    between atoms: C_11  and  C_12
REMARK    5  A    between atoms: C_12  and  C_13
REMARK    6  A    between atoms: C_20  and  C_21
REMARK                            x       y       z     vdW  Elec       q    Type
REMARK                         _______ _______ _______ _____ _____    ______ ____
ROOT
ATOM      1  N   UNL     1       8.453  -3.705   0.484  0.00  0.00    +0.000 NA
ENDROOT
BRANCH   1  10
ATOM      2  N   UNL     1       3.548  -7.067   6.287  0.00  0.00    +0.000 N 
ATOM      3  C   UNL     1       4.237  -6.009   5.868  0.00  0.00    +0.000 A 
ATOM      4  N   UNL     1       4.261  -4.807   6.425  0.00  0.00    +0.000 NA
ATOM      5  N   UNL     1       5.082  -4.153   5.586  0.00  0.00    +0.000 N 
ATOM      6  C   UNL     1       5.507  -4.963   4.569  0.00  0.00    +0.000 A 
ATOM      7  N   UNL     1       6.303  -4.564   3.554  0.00  0.00    +0.000 N 
ATOM      8  C   UNL     1       6.524  -3.162   3.223  0.00  0.00    +0.000 C 
ATOM      9  C   UNL     1       6.339  -2.903   1.731  0.00  0.00    +0.000 C 
ATOM     10  C   UNL     1       7.004  -3.931   0.787  0.00  0.00    +0.000 C 
ATOM     11  C   UNL     1       6.571  -5.336   1.245  0.00  0.00    +0.000 C 
ATOM     12  C   UNL     1       6.865  -5.614   2.708  0.00  0.00    +0.000 C 
ATOM     13  N   UNL     1       5.011  -6.162   4.769  0.00  0.00    +0.000 NA
ATOM     14  H   UNL     1       3.226  -7.046   7.241  0.00  0.00    +0.000 HD
ATOM     15  H   UNL     1       3.861  -7.967   5.956  0.00  0.00    +0.000 HD
ATOM     16  H   UNL     1       5.317  -3.188   5.767  0.00  0.00    +0.000 HD
ENDBRANCH   1  10
BRANCH   1  17
ATOM     17  C   UNL     1       9.345  -3.846   1.653  0.00  0.00    +0.000 C 
BRANCH  17  18
ATOM     18  C   UNL     1      10.845  -3.514   1.525  0.00  0.00    +0.000 C 
BRANCH  18  19
ATOM     19  C   UNL     1      11.514  -3.725   2.874  0.00  0.00    +0.000 A 
ATOM     20  C   UNL     1      12.000  -4.992   3.238  0.00  0.00    +0.000 A 
ATOM     21  C   UNL     1      12.567  -5.201   4.498  0.00  0.00    +0.000 A 
ATOM     22  C   UNL     1      12.641  -4.146   5.405  0.00  0.00    +0.000 A 
ATOM     23 CL   UNL     1      13.349  -4.397   6.953  0.00  0.00    +0.000 Cl
ATOM     24  C   UNL     1      12.142  -2.890   5.068  0.00  0.00    +0.000 A 
ATOM     25  C   UNL     1      11.576  -2.681   3.807  0.00  0.00    +0.000 A 
ENDBRANCH  18  19
ENDBRANCH  17  18
ENDBRANCH   1  17
BRANCH   1  26
ATOM     26  C   UNL     1       8.939  -4.586  -0.600  0.00  0.00    +0.000 C 
BRANCH  26  27
ATOM     27  C   UNL     1       8.274  -4.472  -1.990  0.00  0.00    +0.000 C 
ATOM     28  C   UNL     1       9.015  -5.442  -2.935  0.00  0.00    +0.000 C 
ATOM     29  C   UNL     1       8.580  -5.308  -4.386  0.00  0.00    +0.000 C 
ATOM     30  C   UNL     1       8.729  -3.871  -4.863  0.00  0.00    +0.000 C 
ATOM     31  C   UNL     1       7.909  -2.927  -3.992  0.00  0.00    +0.000 C 
ATOM     32  C   UNL     1       8.305  -3.028  -2.520  0.00  0.00    +0.000 C 
ENDBRANCH  26  27
ENDBRANCH   1  26
TORSDOF 6
ENDMDL
MODEL        6
REMARK  Name = CHEMBL4065553-660
REMARK  5 active torsions:
REMARK  status: ('A' for Active; 'I' for Inactive)
REMARK    1  A    between atoms: C_1  and  N_2
REMARK    2  A    between atoms: N_2  and  C_3
REMARK    3  A    between atoms: N_2  and  C_12
REMARK    4  A    between atoms: C_3  and  C_4
REMARK    5  A    between atoms: C_4  and  C_5
REMARK                            x       y       z     vdW  Elec       q    Type
REMARK                         _______ _______ _______ _____ _____    ______ ____
ROOT
ATOM      1  C   UNL     1       3.168   1.204   0.421  0.00  0.00    +0.000 C 
ATOM      2  C   UNL     1       2.744   2.618  -0.028  0.00  0.00    +0.000 C 
ATOM      3  C   UNL     1       2.856   2.792  -1.538  0.00  0.00    +0.000 C 
ATOM      4  N   UNL     1       4.252   2.634  -1.906  0.00  0.00    +0.000 N 
ATOM      5  C   UNL     1       4.908   3.494  -2.725  0.00  0.00    +0.000 A 
ATOM      6  N   UNL     1       6.201   3.640  -2.900  0.00  0.00    +0.000 NA
ATOM      7  C   UNL     1       6.298   4.682  -3.769  0.00  0.00    +0.000 A 
ATOM      8  N   UNL     1       7.508   5.115  -4.111  0.00  0.00    +0.000 N 
ATOM      9  N   UNL     1       5.146   5.157  -4.226  0.00  0.00    +0.000 NA
ATOM     10  N   UNL     1       4.275   4.397  -3.545  0.00  0.00    +0.000 N 
ATOM     11  C   UNL     1       4.913   1.401  -1.479  0.00  0.00    +0.000 C 
ATOM     12  C   UNL     1       4.669   1.132   0.012  0.00  0.00    +0.000 C 
ATOM     13  H   UNL     1       8.284   4.501  -3.908  0.00  0.00    +0.000 HD
ATOM     14  H   UNL     1       7.581   5.634  -4.976  0.00  0.00    +0.000 HD
ATOM     15  H   UNL     1       3.285   4.520  -3.700  0.00  0.00    +0.000 HD
ENDROOT
BRANCH   1  17
ATOM     16  C   UNL     1       2.934  -1.227   0.313  0.00  0.00    +0.000 C 
ATOM     17  N   UNL     1       2.327   0.070  -0.086  0.00  0.00    +0.000 NA
BRANCH  17  18
ATOM     18  C   UNL     1       0.935   0.020   0.451  0.00  0.00    +0.000 C 
BRANCH  18  19
ATOM     19  C   UNL     1      -0.085   1.084   0.016  0.00  0.00    +0.000 C 
BRANCH  19  20
ATOM     20  C   UNL     1      -1.449   0.822   0.610  0.00  0.00    +0.000 A 
ATOM     21  C   UNL     1      -1.738   1.266   1.911  0.00  0.00    +0.000 A 
ATOM     22  C   UNL     1      -2.993   1.045   2.474  0.00  0.00    +0.000 A 
ATOM     23  C   UNL     1      -3.967   0.375   1.739  0.00  0.00    +0.000 A 
ATOM     24 CL   UNL     1      -5.517   0.102   2.430  0.00  0.00    +0.000 Cl
ATOM     25  C   UNL     1      -3.694  -0.075   0.445  0.00  0.00    +0.000 A 
ATOM     26  C   UNL     1      -2.437   0.146  -0.120  0.00  0.00    +0.000 A 
ENDBRANCH  19  20
ENDBRANCH  18  19
ENDBRANCH  17  18
ENDBRANCH   1  17
TORSDOF 4
ENDMDL
MODEL        7
REMARK  Name = CHEMBL4071081-4137
REMARK  8 active torsions:
REMARK  status: ('A' for Active; 'I' for Inactive)
REMARK    1  A    between atoms: C_1  and  C_2
REMARK    2  A    between atoms: C_2  and  C_3
REMARK    3  A    between atoms: C_2  and  C_4
REMARK    4  A    between atoms: C_7  and  C_8
REMARK    5  A    between atoms: C_8  and  C_9
REMARK    6  A    between atoms: C_9  and  N_10
REMARK    7  A    between atoms: N_10  and  C_11
REMARK    8  A    between atoms: N_10  and  C_12
REMARK                            x       y       z     vdW  Elec       q    Type
REMARK                         _______ _______ _______ _____ _____    ______ ____
ROOT
ATOM      1  C   UNL     1       5.049  -2.388   8.002  0.00  0.00    +0.000 C 
ATOM      2  C   UNL     1       5.513  -2.995   9.353  0.00  0.00    +0.000 C 
ATOM      3  C   UNL     1       4.368  -3.411  10.280  0.00  0.00    +0.000 C 
ATOM      4  N   UNL     1       3.386  -2.329  10.416  0.00  0.00    +0.000 N 
ATOM      5  C   UNL     1       2.955  -1.961  11.649  0.00  0.00    +0.000 A 
ATOM      6  N   UNL     1       3.480  -2.237  12.824  0.00  0.00    +0.000 NA
ATOM      7  C   UNL     1       2.672  -1.590  13.704  0.00  0.00    +0.000 A 
ATOM      8  N   UNL     1       2.977  -1.622  14.999  0.00  0.00    +0.000 N 
ATOM      9  N   UNL     1       1.659  -0.919  13.167  0.00  0.00    +0.000 NA
ATOM     10  N   UNL     1       1.836  -1.197  11.867  0.00  0.00    +0.000 N 
ATOM     11  C   UNL     1       2.895  -1.747   9.175  0.00  0.00    +0.000 C 
ATOM     12  C   UNL     1       4.090  -1.234   8.376  0.00  0.00    +0.000 C 
ATOM     13  H   UNL     1       3.932  -1.872  15.220  0.00  0.00    +0.000 HD
ATOM     14  H   UNL     1       2.597  -0.874  15.562  0.00  0.00    +0.000 HD
ATOM     15  H   UNL     1       1.169  -0.848  11.193  0.00  0.00    +0.000 HD
ENDROOT
BRANCH   1  16
ATOM     16  N   UNL     1       4.462  -3.356   7.015  0.00  0.00    +0.000 NA
ATOM     17  C   UNL     1       5.412  -4.437   6.707  0.00  0.00    +0.000 C 
BRANCH  16  18
ATOM     18  C   UNL     1       4.093  -2.654   5.750  0.00  0.00    +0.000 C 
BRANCH  18  19
ATOM     19  C   UNL     1       3.402  -3.490   4.650  0.00  0.00    +0.000 C 
BRANCH  19  23
ATOM     20  C   UNL     1       2.294  -0.810   1.408  0.00  0.00    +0.000 A 
ATOM     21  C   UNL     1       3.521  -1.488   1.392  0.00  0.00    +0.000 A 
ATOM     22  C   UNL     1       3.869  -2.371   2.422  0.00  0.00    +0.000 A 
ATOM     23  C   UNL     1       2.994  -2.601   3.490  0.00  0.00    +0.000 A 
ATOM     24  C   UNL     1       1.760  -1.939   3.502  0.00  0.00    +0.000 A 
ATOM     25  C   UNL     1       1.415  -1.056   2.473  0.00  0.00    +0.000 A 
BRANCH  20  27
ATOM     26  C   UNL     1       0.724  -0.284  -0.498  0.00  0.00    +0.000 C 
ATOM     27  C   UNL     1       1.949   0.171   0.300  0.00  0.00    +0.000 C 
ATOM     28  C   UNL     1       1.740   1.587   0.845  0.00  0.00    +0.000 C 
ENDBRANCH  20  27
ENDBRANCH  19  23
ENDBRANCH  18  19
ENDBRANCH  16  18
ENDBRANCH   1  16
TORSDOF 5
ENDMDL
MODEL        8
REMARK  Name = CHEMBL4076989-14.2
REMARK  8 active torsions:
REMARK  status: ('A' for Active; 'I' for Inactive)
REMARK    1  A    between atoms: C_1  and  C_2
REMARK    2  A    between atoms: C_2  and  C_3
REMARK    3  A    between atoms: C_2  and  C_4
REMARK    4  A    between atoms: C_4  and  N_5
REMARK    5  A    between atoms: N_5  and  C_6
REMARK    6  A    between atoms: N_5  and  C_15
REMARK    7  A    between atoms: C_6  and  C_7
REMARK    8  A    between atoms: C_7  and  C_8
REMARK                            x       y       z     vdW  Elec       q    Type
REMARK                         _______ _______ _______ _____ _____    ______ ____
ROOT
ATOM      1  C   UNL     1       4.748  -1.264  -2.711  0.00  0.00    +0.000 C 
ATOM      2  C   UNL     1       6.215  -1.280  -3.210  0.00  0.00    +0.000 C 
ATOM      3  C   UNL     1       6.744   0.102  -3.575  0.00  0.00    +0.000 C 
ATOM      4  N   UNL     1       5.868   0.740  -4.551  0.00  0.00    +0.000 N 
ATOM      5  C   UNL     1       6.388   1.106  -5.744  0.00  0.00    +0.000 A 
ATOM      6  N   UNL     1       7.565   0.798  -6.246  0.00  0.00    +0.000 NA
ATOM      7  C   UNL     1       7.579   1.429  -7.445  0.00  0.00    +0.000 A 
ATOM      8  N   UNL     1       8.666   1.305  -8.208  0.00  0.00    +0.000 N 
ATOM      9  N   UNL     1       6.506   2.155  -7.726  0.00  0.00    +0.000 NA
ATOM     10  N   UNL     1       5.759   1.936  -6.633  0.00  0.00    +0.000 N 
ATOM     11  C   UNL     1       4.454   0.789  -4.201  0.00  0.00    +0.000 C 
ATOM     12  C   UNL     1       3.973  -0.634  -3.910  0.00  0.00    +0.000 C 
ATOM     13  H   UNL     1       9.502   0.998  -7.731  0.00  0.00    +0.000 HD
ATOM     14  H   UNL     1       8.809   2.028  -8.901  0.00  0.00    +0.000 HD
ATOM     15  H   UNL     1       4.867   2.402  -6.534  0.00  0.00    +0.000 HD
ENDROOT
BRANCH   1  16
ATOM     16  N   UNL     1       4.442  -0.608  -1.381  0.00  0.00    +0.000 NA
BRANCH  16  17
ATOM     17  C   UNL     1       2.958  -0.676  -1.138  0.00  0.00    +0.000 C 
BRANCH  17  19
ATOM     18  C   UNL     1       2.563   1.500   0.173  0.00  0.00    +0.000 C 
ATOM     19  C   UNL     1       2.311  -0.006   0.109  0.00  0.00    +0.000 C 
ATOM     20  C   UNL     1       0.787  -0.226   0.067  0.00  0.00    +0.000 C 
ENDBRANCH  17  19
ENDBRANCH  16  17
BRANCH  16  21
ATOM     21  C   UNL     1       5.143  -1.238  -0.222  0.00  0.00    +0.000 C 
BRANCH  21  22
ATOM     22  C   UNL     1       6.689  -1.173  -0.041  0.00  0.00    +0.000 C 
BRANCH  22  23
ATOM     23  C   UNL     1       7.405   0.145  -0.254  0.00  0.00    +0.000 A 
ATOM     24  C   UNL     1       6.740   1.375  -0.177  0.00  0.00    +0.000 A 
ATOM     25  C   UNL     1       7.407   2.576  -0.427  0.00  0.00    +0.000 A 
ATOM     26  C   UNL     1       8.766   2.561  -0.721  0.00  0.00    +0.000 A 
ATOM     27 CL   UNL     1       9.589   4.042  -1.018  0.00  0.00    +0.000 Cl
ATOM     28  C   UNL     1       9.457   1.354  -0.775  0.00  0.00    +0.000 A 
ATOM     29  C   UNL     1       8.780   0.151  -0.541  0.00  0.00    +0.000 A 
ENDBRANCH  22  23
ENDBRANCH  21  22
ENDBRANCH  16  21
ENDBRANCH   1  16
TORSDOF 6
ENDMDL
MODEL        9
REMARK  Name = CHEMBL4072036-182
REMARK  6 active torsions:
REMARK  status: ('A' for Active; 'I' for Inactive)
REMARK    1  A    between atoms: C_1  and  C_2
REMARK    2  A    between atoms: C_2  and  N_3
REMARK    3  A    between atoms: N_3  and  C_4
REMARK    4  A    between atoms: N_3  and  C_13
REMARK    5  A    between atoms: C_4  and  C_5
REMARK    6  A    between atoms: C_5  and  C_6
REMARK                            x       y       z     vdW  Elec       q    Type
REMARK                         _______ _______ _______ _____ _____    ______ ____
ROOT
ATOM      1  C   UNL     1       4.418  -0.612   0.971  0.00  0.00    +0.000 C 
ATOM      2  C   UNL     1       5.162  -1.302   2.142  0.00  0.00    +0.000 C 
ATOM      3  C   UNL     1       5.154  -0.476   3.429  0.00  0.00    +0.000 C 
ATOM      4  N   UNL     1       5.644   0.879   3.166  0.00  0.00    +0.000 N 
ATOM      5  C   UNL     1       6.632   1.395   3.941  0.00  0.00    +0.000 A 
ATOM      6  N   UNL     1       7.434   0.769   4.774  0.00  0.00    +0.000 NA
ATOM      7  C   UNL     1       8.236   1.751   5.257  0.00  0.00    +0.000 A 
ATOM      8  N   UNL     1       9.207   1.427   6.108  0.00  0.00    +0.000 N 
ATOM      9  N   UNL     1       8.002   2.969   4.782  0.00  0.00    +0.000 NA
ATOM     10  N   UNL     1       6.959   2.727   3.973  0.00  0.00    +0.000 N 
ATOM     11  C   UNL     1       4.975   1.604   2.096  0.00  0.00    +0.000 C 
ATOM     12  C   UNL     1       5.073   0.782   0.814  0.00  0.00    +0.000 C 
ATOM     13  H   UNL     1       9.475   0.453   6.125  0.00  0.00    +0.000 HD
ATOM     14  H   UNL     1       9.974   2.080   6.187  0.00  0.00    +0.000 HD
ATOM     15  H   UNL     1       6.520   3.498   3.491  0.00  0.00    +0.000 HD
ENDROOT
BRANCH   1  16
ATOM     16  N   UNL     1       2.925  -0.580   1.103  0.00  0.00    +0.000 NA
BRANCH  16  18
ATOM     17  C   UNL     1       0.783   0.272   0.001  0.00  0.00    +0.000 C 
ATOM     18  C   UNL     1       2.301   0.121  -0.044  0.00  0.00    +0.000 C 
ENDBRANCH  16  18
BRANCH  16  19
ATOM     19  C   UNL     1       2.325  -1.923   1.334  0.00  0.00    +0.000 C 
BRANCH  19  20
ATOM     20  C   UNL     1       2.572  -2.979   0.233  0.00  0.00    +0.000 C 
BRANCH  20  21
ATOM     21  C   UNL     1       2.037  -4.359   0.549  0.00  0.00    +0.000 A 
ATOM     22  C   UNL     1       0.981  -4.898  -0.203  0.00  0.00    +0.000 A 
ATOM     23  C   UNL     1       0.549  -6.209   0.012  0.00  0.00    +0.000 A 
ATOM     24  C   UNL     1       1.165  -6.990   0.985  0.00  0.00    +0.000 A 
ATOM     25 CL   UNL     1       0.654  -8.615   1.228  0.00  0.00    +0.000 Cl
ATOM     26  C   UNL     1       2.203  -6.470   1.752  0.00  0.00    +0.000 A 
ATOM     27  C   UNL     1       2.639  -5.156   1.534  0.00  0.00    +0.000 A 
ENDBRANCH  20  21
ENDBRANCH  19  20
ENDBRANCH  16  19
ENDBRANCH   1  16
TORSDOF 5
ENDMDL
MODEL       10
REMARK  Name = CHEMBL4084573-3.4
REMARK  6 active torsions:
REMARK  status: ('A' for Active; 'I' for Inactive)
REMARK    1  A    between atoms: C_9  and  N_10
REMARK    2  A    between atoms: N_10  and  C_11
REMARK    3  A    between atoms: N_10  and  C_20
REMARK    4  A    between atoms: C_11  and  C_12
REMARK    5  A    between atoms: C_12  and  C_13
REMARK    6  A    between atoms: C_20  and  C_21
REMARK                            x       y       z     vdW  Elec       q    Type
REMARK                         _______ _______ _______ _____ _____    ______ ____
ROOT
ATOM      1  N   UNL     1       8.399  -3.760   0.431  0.00  0.00    +0.000 NA
ENDROOT
BRANCH   1  10
ATOM      2  N   UNL     1       1.846   1.089   0.976  0.00  0.00    +0.000 N 
ATOM      3  C   UNL     1       2.721   0.411   0.239  0.00  0.00    +0.000 A 
ATOM      4  N   UNL     1       2.627   0.208  -1.070  0.00  0.00    +0.000 NA
ATOM      5  N   UNL     1       3.750  -0.487  -1.298  0.00  0.00    +0.000 N 
ATOM      6  C   UNL     1       4.474  -0.685  -0.150  0.00  0.00    +0.000 A 
ATOM      7  N   UNL     1       5.667  -1.339  -0.128  0.00  0.00    +0.000 N 
ATOM      8  C   UNL     1       6.037  -2.339  -1.122  0.00  0.00    +0.000 C 
ATOM      9  C   UNL     1       6.021  -3.732  -0.501  0.00  0.00    +0.000 C 
ATOM     10  C   UNL     1       6.937  -3.835   0.750  0.00  0.00    +0.000 C 
ATOM     11  C   UNL     1       6.398  -2.764   1.729  0.00  0.00    +0.000 C 
ATOM     12  C   UNL     1       6.441  -1.368   1.118  0.00  0.00    +0.000 C 
ATOM     13  N   UNL     1       3.837  -0.088   0.833  0.00  0.00    +0.000 NA
ATOM     14  H   UNL     1       1.227   1.711   0.473  0.00  0.00    +0.000 HD
ATOM     15  H   UNL     1       2.188   1.453   1.854  0.00  0.00    +0.000 HD
ATOM     16  H   UNL     1       3.980  -0.760  -2.242  0.00  0.00    +0.000 HD
ENDBRANCH   1  10
BRANCH   1  17
ATOM     17  C   UNL     1       9.259  -3.826   1.642  0.00  0.00    +0.000 C 
BRANCH  17  18
ATOM     18  C   UNL     1      10.747  -3.471   1.415  0.00  0.00    +0.000 C 
BRANCH  18  19
ATOM     19  C   UNL     1      11.577  -3.585   2.676  0.00  0.00    +0.000 A 
ATOM     20  C   UNL     1      12.170  -4.807   3.031  0.00  0.00    +0.000 A 
ATOM     21  C   UNL     1      12.924  -4.915   4.202  0.00  0.00    +0.000 A 
ATOM     22  C   UNL     1      13.080  -3.804   5.028  0.00  0.00    +0.000 A 
ATOM     23 CL   UNL     1      13.984  -3.942   6.486  0.00  0.00    +0.000 Cl
ATOM     24  C   UNL     1      12.504  -2.584   4.684  0.00  0.00    +0.000 A 
ATOM     25  C   UNL     1      11.755  -2.474   3.510  0.00  0.00    +0.000 A 
ENDBRANCH  18  19
ENDBRANCH  17  18
ENDBRANCH   1  17
BRANCH   1  26
ATOM     26  C   UNL     1       8.852  -4.716  -0.625  0.00  0.00    +0.000 C 
BRANCH  26  27
ATOM     27  C   UNL     1       8.807  -6.211  -0.300  0.00  0.00    +0.000 A 
ATOM     28  C   UNL     1       7.543  -6.827  -0.152  0.00  0.00    +0.000 A 
ATOM     29  C   UNL     1       7.407  -8.145   0.259  0.00  0.00    +0.000 A 
ATOM     30  C   UNL     1       8.537  -8.902   0.500  0.00  0.00    +0.000 A 
ATOM     31  C   UNL     1       9.811  -8.365   0.290  0.00  0.00    +0.000 A 
ATOM     32  C   UNL     1      10.930  -9.191   0.508  0.00  0.00    +0.000 A 
ATOM     33  C   UNL     1      12.219  -8.723   0.285  0.00  0.00    +0.000 A 
ATOM     34  C   UNL     1      12.405  -7.429  -0.181  0.00  0.00    +0.000 A 
ATOM     35  C   UNL     1      11.301  -6.601  -0.403  0.00  0.00    +0.000 A 
ATOM     36  C   UNL     1       9.974  -7.021  -0.141  0.00  0.00    +0.000 A 
ENDBRANCH  26  27
ENDBRANCH   1  26
TORSDOF 6
ENDMDL
MODEL       11
REMARK  Name = CHEMBL4103842-970
REMARK  7 active torsions:
REMARK  status: ('A' for Active; 'I' for Inactive)
REMARK    1  A    between atoms: C_1  and  C_2
REMARK    2  A    between atoms: C_2  and  C_3
REMARK    3  A    between atoms: C_6  and  C_7
REMARK    4  A    between atoms: C_7  and  C_8
REMARK    5  A    between atoms: C_8  and  N_9
REMARK    6  A    between atoms: N_9  and  C_10
REMARK    7  A    between atoms: N_9  and  C_11
REMARK                            x       y       z     vdW  Elec       q    Type
REMARK                         _______ _______ _______ _____ _____    ______ ____
ROOT
ATOM      1  C   UNL     1       3.573   8.527   1.172  0.00  0.00    +0.000 C 
ATOM      2  C   UNL     1       3.968   9.967   1.598  0.00  0.00    +0.000 C 
ATOM      3  C   UNL     1       3.125  10.548   2.738  0.00  0.00    +0.000 C 
ATOM      4  N   UNL     1       1.696  10.342   2.494  0.00  0.00    +0.000 N 
ATOM      5  C   UNL     1       0.854  11.404   2.472  0.00  0.00    +0.000 A 
ATOM      6  N   UNL     1       1.134  12.687   2.455  0.00  0.00    +0.000 NA
ATOM      7  C   UNL     1      -0.086  13.284   2.477  0.00  0.00    +0.000 A 
ATOM      8  N   UNL     1      -0.146  14.615   2.471  0.00  0.00    +0.000 N 
ATOM      9  N   UNL     1      -1.130  12.467   2.478  0.00  0.00    +0.000 NA
ATOM     10  N   UNL     1      -0.510  11.273   2.501  0.00  0.00    +0.000 N 
ATOM     11  C   UNL     1       1.290   8.991   2.144  0.00  0.00    +0.000 C 
ATOM     12  C   UNL     1       2.052   8.569   0.894  0.00  0.00    +0.000 C 
ATOM     13  H   UNL     1       0.682  15.099   2.157  0.00  0.00    +0.000 HD
ATOM     14  H   UNL     1      -1.022  15.030   2.195  0.00  0.00    +0.000 HD
ATOM     15  H   UNL     1      -1.066  10.434   2.564  0.00  0.00    +0.000 HD
ENDROOT
BRANCH   1  16
ATOM     16  N   UNL     1       3.932   7.419   2.116  0.00  0.00    +0.000 NA
ATOM     17  C   UNL     1       5.365   7.417   2.446  0.00  0.00    +0.000 C 
BRANCH  16  18
ATOM     18  C   UNL     1       3.553   6.098   1.535  0.00  0.00    +0.000 C 
BRANCH  18  19
ATOM     19  C   UNL     1       3.717   4.890   2.471  0.00  0.00    +0.000 C 
BRANCH  19  23
ATOM     20  C   UNL     1       2.190   1.264   0.666  0.00  0.00    +0.000 A 
ATOM     21  C   UNL     1       3.531   1.633   0.500  0.00  0.00    +0.000 A 
ATOM     22  C   UNL     1       4.019   2.808   1.073  0.00  0.00    +0.000 A 
ATOM     23  C   UNL     1       3.181   3.622   1.845  0.00  0.00    +0.000 A 
ATOM     24  C   UNL     1       1.843   3.248   2.021  0.00  0.00    +0.000 A 
ATOM     25  C   UNL     1       1.354   2.073   1.445  0.00  0.00    +0.000 A 
BRANCH  20  27
ATOM     26  C   UNL     1       1.874  -1.214   0.901  0.00  0.00    +0.000 C 
ATOM     27  C   UNL     1       1.665   0.008   0.022  0.00  0.00    +0.000 C 
ENDBRANCH  20  27
ENDBRANCH  19  23
ENDBRANCH  18  19
ENDBRANCH  16  18
ENDBRANCH   1  16
TORSDOF 5
ENDMDL
MODEL       12
REMARK  Name = CHEMBL4081105-1111
REMARK  6 active torsions:
REMARK  status: ('A' for Active; 'I' for Inactive)
REMARK    1  A    between atoms: C_1  and  C_2
REMARK    2  A    between atoms: C_5  and  C_6
REMARK    3  A    between atoms: C_6  and  C_7
REMARK    4  A    between atoms: C_7  and  N_8
REMARK    5  A    between atoms: N_8  and  C_9
REMARK    6  A    between atoms: N_8  and  C_10
REMARK                            x       y       z     vdW  Elec       q    Type
REMARK                         _______ _______ _______ _____ _____    ______ ____
ROOT
ATOM      1  C   UNL     1      -5.533   3.001  -0.166  0.00  0.00    +0.000 C 
ATOM      2  C   UNL     1      -7.027   3.387  -0.155  0.00  0.00    +0.000 C 
ATOM      3  C   UNL     1      -7.189   4.829  -0.649  0.00  0.00    +0.000 C 
ATOM      4  N   UNL     1      -6.339   5.733   0.130  0.00  0.00    +0.000 N 
ATOM      5  C   UNL     1      -6.862   6.888   0.605  0.00  0.00    +0.000 A 
ATOM      6  N   UNL     1      -8.127   7.237   0.705  0.00  0.00    +0.000 NA
ATOM      7  C   UNL     1      -8.082   8.458   1.290  0.00  0.00    +0.000 A 
ATOM      8  N   UNL     1      -9.224   9.068   1.590  0.00  0.00    +0.000 N 
ATOM      9  N   UNL     1      -6.870   8.921   1.569  0.00  0.00    +0.000 NA
ATOM     10  N   UNL     1      -6.109   7.919   1.099  0.00  0.00    +0.000 N 
ATOM     11  C   UNL     1      -4.932   5.392   0.242  0.00  0.00    +0.000 C 
ATOM     12  C   UNL     1      -4.798   3.973   0.781  0.00  0.00    +0.000 C 
ATOM     13  H   UNL     1     -10.042   8.475   1.639  0.00  0.00    +0.000 HD
ATOM     14  H   UNL     1      -9.175   9.777   2.310  0.00  0.00    +0.000 HD
ATOM     15  H   UNL     1      -5.108   8.001   1.154  0.00  0.00    +0.000 HD
ENDROOT
BRANCH   1  16
ATOM     16  N   UNL     1      -5.246   1.557   0.035  0.00  0.00    +0.000 NA
ATOM     17  C   UNL     1      -5.905   0.957   1.190  0.00  0.00    +0.000 C 
BRANCH  16  18
ATOM     18  C   UNL     1      -3.784   1.331   0.034  0.00  0.00    +0.000 C 
BRANCH  18  19
ATOM     19  C   UNL     1      -3.285  -0.115  -0.072  0.00  0.00    +0.000 C 
BRANCH  19  24
ATOM     20  C   UNL     1       2.546   0.057  -0.270  0.00  0.00    +0.000 C 
ATOM     21  C   UNL     1       1.048   0.016  -0.206  0.00  0.00    +0.000 A 
ATOM     22  C   UNL     1       0.379  -0.050   1.020  0.00  0.00    +0.000 A 
ATOM     23  C   UNL     1      -1.018  -0.110   1.063  0.00  0.00    +0.000 A 
ATOM     24  C   UNL     1      -1.769  -0.110  -0.120  0.00  0.00    +0.000 A 
ATOM     25  C   UNL     1      -1.097  -0.021  -1.345  0.00  0.00    +0.000 A 
ATOM     26  C   UNL     1       0.298   0.039  -1.388  0.00  0.00    +0.000 A 
ENDBRANCH  19  24
ENDBRANCH  18  19
ENDBRANCH  16  18
ENDBRANCH   1  16
TORSDOF 4
ENDMDL
MODEL       13
REMARK  Name = CHEMBL4068944-8.7
REMARK  8 active torsions:
REMARK  status: ('A' for Active; 'I' for Inactive)
REMARK    1  A    between atoms: C_1  and  C_2
REMARK    2  A    between atoms: C_2  and  C_3
REMARK    3  A    between atoms: C_2  and  C_4
REMARK    4  A    between atoms: C_4  and  N_5
REMARK    5  A    between atoms: N_5  and  C_6
REMARK    6  A    between atoms: N_5  and  C_15
REMARK    7  A    between atoms: C_6  and  C_7
REMARK    8  A    between atoms: C_7  and  C_8
REMARK                            x       y       z     vdW  Elec       q    Type
REMARK                         _______ _______ _______ _____ _____    ______ ____
ROOT
ATOM      1  C   UNL     1       4.955  -2.797  -0.961  0.00  0.00    +0.000 C 
ATOM      2  C   UNL     1       6.475  -3.022  -1.182  0.00  0.00    +0.000 C 
ATOM      3  C   UNL     1       7.039  -2.393  -2.461  0.00  0.00    +0.000 C 
ATOM      4  N   UNL     1       6.259  -2.819  -3.613  0.00  0.00    +0.000 N 
ATOM      5  C   UNL     1       6.773  -3.441  -4.700  0.00  0.00    +0.000 A 
ATOM      6  N   UNL     1       6.155  -4.159  -5.613  0.00  0.00    +0.000 NA
ATOM      7  C   UNL     1       7.147  -4.542  -6.456  0.00  0.00    +0.000 A 
ATOM      8  N   UNL     1       6.834  -5.293  -7.510  0.00  0.00    +0.000 N 
ATOM      9  N   UNL     1       8.355  -4.074  -6.172  0.00  0.00    +0.000 NA
ATOM     10  N   UNL     1       8.103  -3.385  -5.049  0.00  0.00    +0.000 N 
ATOM     11  C   UNL     1       4.815  -2.636  -3.501  0.00  0.00    +0.000 C 
ATOM     12  C   UNL     1       4.311  -3.369  -2.259  0.00  0.00    +0.000 C 
ATOM     13  H   UNL     1       5.859  -5.306  -7.770  0.00  0.00    +0.000 HD
ATOM     14  H   UNL     1       7.479  -5.269  -8.288  0.00  0.00    +0.000 HD
ATOM     15  H   UNL     1       8.847  -2.875  -4.596  0.00  0.00    +0.000 HD
ENDROOT
BRANCH   1  16
ATOM     16  N   UNL     1       4.490  -1.407  -0.579  0.00  0.00    +0.000 NA
BRANCH  16  17
ATOM     17  C   UNL     1       2.980  -1.389  -0.491  0.00  0.00    +0.000 C 
BRANCH  17  19
ATOM     18  C   UNL     1       2.501   0.973  -1.363  0.00  0.00    +0.000 C 
ATOM     19  C   UNL     1       2.242  -0.038  -0.247  0.00  0.00    +0.000 C 
ATOM     20  C   UNL     1       0.721  -0.260  -0.148  0.00  0.00    +0.000 C 
ENDBRANCH  17  19
ENDBRANCH  16  17
BRANCH  16  21
ATOM     21  C   UNL     1       5.026  -0.957   0.745  0.00  0.00    +0.000 C 
BRANCH  21  22
ATOM     22  C   UNL     1       6.523  -0.595   0.953  0.00  0.00    +0.000 C 
BRANCH  22  23
ATOM     23  C   UNL     1       7.170   0.305  -0.074  0.00  0.00    +0.000 A 
ATOM     24  C   UNL     1       6.456   1.360  -0.654  0.00  0.00    +0.000 A 
ATOM     25  C   UNL     1       7.043   2.189  -1.609  0.00  0.00    +0.000 A 
ATOM     26  C   UNL     1       8.369   1.989  -1.972  0.00  0.00    +0.000 A 
ATOM     27 BR   UNL     1       9.160   3.113  -3.269  0.00  0.00    +0.000 Br
ATOM     28  C   UNL     1       9.115   0.972  -1.380  0.00  0.00    +0.000 A 
ATOM     29  C   UNL     1       8.519   0.137  -0.428  0.00  0.00    +0.000 A 
ENDBRANCH  22  23
ENDBRANCH  21  22
ENDBRANCH  16  21
ENDBRANCH   1  16
TORSDOF 6
ENDMDL
MODEL       14
REMARK  Name = CHEMBL4084148-2025
REMARK  5 active torsions:
REMARK  status: ('A' for Active; 'I' for Inactive)
REMARK    1  A    between atoms: C_1  and  N_2
REMARK    2  A    between atoms: N_2  and  C_3
REMARK    3  A    between atoms: N_2  and  C_13
REMARK    4  A    between atoms: C_3  and  C_4
REMARK    5  A    between atoms: C_4  and  C_5
REMARK                            x       y       z     vdW  Elec       q    Type
REMARK                         _______ _______ _______ _____ _____    ______ ____
ROOT
ATOM      1  C   UNL     1       3.093   1.050   1.038  0.00  0.00    +0.000 C 
ATOM      2  C   UNL     1       2.614   2.516   1.017  0.00  0.00    +0.000 C 
ATOM      3  C   UNL     1       2.963   3.233  -0.281  0.00  0.00    +0.000 C 
ATOM      4  N   UNL     1       4.404   3.220  -0.460  0.00  0.00    +0.000 N 
ATOM      5  C   UNL     1       5.118   4.334  -0.748  0.00  0.00    +0.000 A 
ATOM      6  N   UNL     1       6.414   4.541  -0.620  0.00  0.00    +0.000 NA
ATOM      7  C   UNL     1       6.554   5.855  -0.942  0.00  0.00    +0.000 A 
ATOM      8  N   UNL     1       7.754   6.413  -0.826  0.00  0.00    +0.000 N 
ATOM      9  N   UNL     1       5.453   6.472  -1.360  0.00  0.00    +0.000 NA
ATOM     10  N   UNL     1       4.553   5.487  -1.232  0.00  0.00    +0.000 N 
ATOM     11  C   UNL     1       5.045   1.907  -0.429  0.00  0.00    +0.000 C 
ATOM     12  C   UNL     1       4.636   1.145   0.836  0.00  0.00    +0.000 C 
ATOM     13  H   UNL     1       8.540   5.783  -0.770  0.00  0.00    +0.000 HD
ATOM     14  H   UNL     1       7.915   7.275  -1.324  0.00  0.00    +0.000 HD
ATOM     15  H   UNL     1       3.592   5.656  -1.493  0.00  0.00    +0.000 HD
ENDROOT
BRANCH   1  17
ATOM     16  C   UNL     1       2.984  -1.247   0.198  0.00  0.00    +0.000 C 
ATOM     17  N   UNL     1       2.408   0.114   0.093  0.00  0.00    +0.000 NA
BRANCH  17  18
ATOM     18  C   UNL     1       0.936  -0.047   0.289  0.00  0.00    +0.000 C 
BRANCH  18  19
ATOM     19  C   UNL     1      -0.044   1.068  -0.154  0.00  0.00    +0.000 C 
BRANCH  19  20
ATOM     20  C   UNL     1       0.172   1.716  -1.509  0.00  0.00    +0.000 A 
ATOM     21  C   UNL     1       0.995   1.113  -2.478  0.00  0.00    +0.000 A 
ATOM     22  C   UNL     1       1.288   1.755  -3.682  0.00  0.00    +0.000 A 
ATOM     23  C   UNL     1       0.711   2.986  -3.963  0.00  0.00    +0.000 A 
ATOM     24 CL   UNL     1       1.078   3.779  -5.443  0.00  0.00    +0.000 Cl
ATOM     25  C   UNL     1      -0.153   3.583  -3.050  0.00  0.00    +0.000 A 
ATOM     26  C   UNL     1      -0.419   2.954  -1.830  0.00  0.00    +0.000 A 
ATOM     27 CL   UNL     1      -1.462   3.782  -0.727  0.00  0.00    +0.000 Cl
ENDBRANCH  19  20
ENDBRANCH  18  19
ENDBRANCH  17  18
ENDBRANCH   1  17
TORSDOF 4
ENDMDL
MODEL       15
REMARK  Name = CHEMBL1230997-40
REMARK  20 active torsions:
REMARK  status: ('A' for Active; 'I' for Inactive)
REMARK    1  A    between atoms: C_1  and  C_2
REMARK    2  A    between atoms: N_4  and  C_5
REMARK    3  A    between atoms: C_6  and  O_7
REMARK    4  A    between atoms: O_7  and  C_8
REMARK    5  A    between atoms: C_9  and  O_10
REMARK    6  A    between atoms: C_11  and  N_12
REMARK    7  A    between atoms: C_13  and  C_14
REMARK    8  A    between atoms: C_16  and  O_17
REMARK    9  A    between atoms: O_17  and  C_18
REMARK   10  A    between atoms: C_19  and  C_20
REMARK   11  A    between atoms: C_20  and  O_21
REMARK   12  A    between atoms: N_25  and  C_26
REMARK   13  A    between atoms: N_25  and  C_27
REMARK   14  A    between atoms: C_30  and  O_31
REMARK   15  A    between atoms: C_33  and  C_34
REMARK   16  A    between atoms: C_34  and  O_35
REMARK   17  A    between atoms: C_37  and  C_38
REMARK   18  A    between atoms: C_38  and  O_39
REMARK   19  A    between atoms: C_40  and  O_41
REMARK   20  A    between atoms: C_42  and  O_43
REMARK                            x       y       z     vdW  Elec       q    Type
REMARK                         _______ _______ _______ _____ _____    ______ ____
ROOT
ATOM      1  C   UNL     1       2.971  -3.148   2.504  0.00  0.00    +0.000 C 
ATOM      2  C   UNL     1       2.521  -4.206   3.588  0.00  0.00    +0.000 C 
ATOM      3  C   UNL     1       0.938  -4.261   3.810  0.00  0.00    +0.000 C 
ATOM      4  C   UNL     1       0.448  -2.846   4.226  0.00  0.00    +0.000 C 
ATOM      5  O   UNL     1       0.729  -2.055   3.077  0.00  0.00    +0.000 OA
ATOM      6  C   UNL     1       2.164  -1.804   2.911  0.00  0.00    +0.000 C 
ENDROOT
BRANCH   3   7
ATOM      7  N   UNL     1       0.514  -5.377   4.666  0.00  0.00    +0.000 N 
ATOM      8  C   UNL     1       0.594  -5.361   6.032  0.00  0.00    +0.000 C 
ATOM      9  C   UNL     1       0.094  -6.612   6.706  0.00  0.00    +0.000 C 
ATOM     10  O   UNL     1       1.045  -4.404   6.652  0.00  0.00    +0.000 OA
ATOM     11  H   UNL     1       0.295  -6.256   4.212  0.00  0.00    +0.000 HD
ENDBRANCH   3   7
BRANCH   2  12
ATOM     12  O   UNL     1       3.219  -3.868   4.803  0.00  0.00    +0.000 OA
ATOM     13  H   UNL     1       2.597  -3.834   5.557  0.00  0.00    +0.000 HD
ENDBRANCH   2  12
BRANCH   6  14
ATOM     14  C   UNL     1       2.071  -0.583   1.985  0.00  0.00    +0.000 C 
BRANCH  14  15
ATOM     15  O   UNL     1       1.328   0.456   2.680  0.00  0.00    +0.000 OA
ATOM     16  H   UNL     1       0.559  -0.000   3.098  0.00  0.00    +0.000 HD
ENDBRANCH  14  15
ENDBRANCH   6  14
BRANCH   4  17
ATOM     17  O   UNL     1      -0.851  -2.513   4.723  0.00  0.00    +0.000 OA
BRANCH  17  18
ATOM     18  C   UNL     1      -2.072  -3.133   4.348  0.00  0.00    +0.000 C 
ATOM     19  C   UNL     1      -2.617  -2.665   2.981  0.00  0.00    +0.000 C 
ATOM     20  C   UNL     1      -3.724  -1.627   3.243  0.00  0.00    +0.000 C 
ATOM     21  O   UNL     1      -3.318  -0.315   2.872  0.00  0.00    +0.000 OA
ATOM     22  C   UNL     1      -3.199   0.381   4.031  0.00  0.00    +0.000 C 
ATOM     23  N   UNL     1      -2.817   1.685   3.879  0.00  0.00    +0.000 N 
ATOM     24  C   UNL     1      -2.731   2.571   5.022  0.00  0.00    +0.000 C 
ATOM     25  C   UNL     1      -2.333   2.222   2.616  0.00  0.00    +0.000 C 
ATOM     26  N   UNL     1      -3.493  -0.215   5.141  0.00  0.00    +0.000 NA
ATOM     27  C   UNL     1      -3.967  -1.552   4.730  0.00  0.00    +0.000 C 
ATOM     28  C   UNL     1      -3.164  -2.691   5.367  0.00  0.00    +0.000 C 
BRANCH  28  29
ATOM     29  O   UNL     1      -4.049  -3.772   5.696  0.00  0.00    +0.000 OA
ATOM     30  H   UNL     1      -4.438  -4.136   4.886  0.00  0.00    +0.000 HD
ENDBRANCH  28  29
BRANCH  19  31
ATOM     31  C   UNL     1      -3.231  -3.843   2.217  0.00  0.00    +0.000 C 
BRANCH  31  32
ATOM     32  O   UNL     1      -2.256  -4.847   1.991  0.00  0.00    +0.000 OA
ATOM     33  H   UNL     1      -1.651  -4.504   1.310  0.00  0.00    +0.000 HD
ENDBRANCH  31  32
ENDBRANCH  19  31
ENDBRANCH  17  18
ENDBRANCH   4  17
BRANCH   1  34
ATOM     34  O   UNL     1       4.451  -2.983   2.430  0.00  0.00    +0.000 OA
BRANCH  34  36
ATOM     35  C   UNL     1       6.826  -3.438   1.720  0.00  0.00    +0.000 C 
ATOM     36  C   UNL     1       5.370  -4.072   1.929  0.00  0.00    +0.000 C 
ATOM     37  O   UNL     1       5.491  -5.184   2.855  0.00  0.00    +0.000 OA
ATOM     38  C   UNL     1       6.579  -6.137   2.632  0.00  0.00    +0.000 C 
ATOM     39  C   UNL     1       7.968  -5.477   2.650  0.00  0.00    +0.000 C 
ATOM     40  C   UNL     1       8.012  -4.444   1.541  0.00  0.00    +0.000 C 
BRANCH  35  44
ATOM     41  C   UNL     1       7.179  -1.201  -1.340  0.00  0.00    +0.000 C 
ATOM     42  C   UNL     1       6.833  -2.470  -0.598  0.00  0.00    +0.000 C 
ATOM     43  O   UNL     1       6.515  -3.521  -1.142  0.00  0.00    +0.000 OA
ATOM     44  N   UNL     1       6.930  -2.334   0.764  0.00  0.00    +0.000 N 
ATOM     45  H   UNL     1       7.293  -1.459   1.127  0.00  0.00    +0.000 HD
ENDBRANCH  35  44
BRANCH  40  46
ATOM     46  O   UNL     1       8.115  -5.178   0.307  0.00  0.00    +0.000 OA
ATOM     47  H   UNL     1       7.266  -5.149  -0.175  0.00  0.00    +0.000 HD
ENDBRANCH  40  46
BRANCH  39  48
ATOM     48  O   UNL     1       9.029  -6.432   2.457  0.00  0.00    +0.000 OA
ATOM     49  H   UNL     1       9.265  -6.415   1.506  0.00  0.00    +0.000 HD
ENDBRANCH  39  48
BRANCH  38  50
ATOM     50  C   UNL     1       6.576  -7.223   3.737  0.00  0.00    +0.000 C 
BRANCH  50  51
ATOM     51  O   UNL     1       5.462  -8.109   3.624  0.00  0.00    +0.000 OA
ATOM     52  H   UNL     1       5.223  -8.168   2.687  0.00  0.00    +0.000 HD
ENDBRANCH  50  51
ENDBRANCH  38  50
ENDBRANCH  34  36
ENDBRANCH   1  34
TORSDOF 16
ENDMDL
MODEL       16
REMARK  Name = CHEMBL4075848-134
REMARK  7 active torsions:
REMARK  status: ('A' for Active; 'I' for Inactive)
REMARK    1  A    between atoms: C_1  and  C_2
REMARK    2  A    between atoms: C_2  and  C_3
REMARK    3  A    between atoms: C_2  and  N_4
REMARK    4  A    between atoms: N_4  and  C_5
REMARK    5  A    between atoms: N_4  and  C_14
REMARK    6  A    between atoms: C_5  and  C_6
REMARK    7  A    between atoms: C_6  and  C_7
REMARK                            x       y       z     vdW  Elec       q    Type
REMARK                         _______ _______ _______ _____ _____    ______ ____
ROOT
ATOM      1  C   UNL     1       4.519  -0.780   0.828  0.00  0.00    +0.000 C 
ATOM      2  C   UNL     1       5.382  -1.564   1.851  0.00  0.00    +0.000 C 
ATOM      3  C   UNL     1       5.267  -0.964   3.247  0.00  0.00    +0.000 C 
ATOM      4  N   UNL     1       5.870   0.363   3.198  0.00  0.00    +0.000 N 
ATOM      5  C   UNL     1       6.828   0.664   4.112  0.00  0.00    +0.000 A 
ATOM      6  N   UNL     1       7.423  -0.149   4.958  0.00  0.00    +0.000 NA
ATOM      7  C   UNL     1       8.307   0.651   5.615  0.00  0.00    +0.000 A 
ATOM      8  N   UNL     1       9.103   0.106   6.531  0.00  0.00    +0.000 N 
ATOM      9  N   UNL     1       8.322   1.920   5.228  0.00  0.00    +0.000 NA
ATOM     10  N   UNL     1       7.358   1.915   4.293  0.00  0.00    +0.000 N 
ATOM     11  C   UNL     1       5.309   1.278   2.206  0.00  0.00    +0.000 C 
ATOM     12  C   UNL     1       5.242   0.606   0.818  0.00  0.00    +0.000 C 
ATOM     13  H   UNL     1       9.202  -0.901   6.497  0.00  0.00    +0.000 HD
ATOM     14  H   UNL     1       9.944   0.614   6.760  0.00  0.00    +0.000 HD
ATOM     15  H   UNL     1       7.111   2.778   3.832  0.00  0.00    +0.000 HD
ENDROOT
BRANCH   1  16
ATOM     16  N   UNL     1       3.026  -0.691   1.034  0.00  0.00    +0.000 NA
BRANCH  16  18
ATOM     17  C   UNL     1       2.352  -0.407  -1.450  0.00  0.00    +0.000 C 
ATOM     18  C   UNL     1       2.354   0.162  -0.018  0.00  0.00    +0.000 C 
ATOM     19  C   UNL     1       0.916   0.582   0.346  0.00  0.00    +0.000 C 
ENDBRANCH  16  18
BRANCH  16  20
ATOM     20  C   UNL     1       2.281  -1.986   1.176  0.00  0.00    +0.000 C 
BRANCH  20  21
ATOM     21  C   UNL     1       2.662  -2.953   2.310  0.00  0.00    +0.000 C 
BRANCH  21  22
ATOM     22  C   UNL     1       1.889  -4.242   2.477  0.00  0.00    +0.000 A 
ATOM     23  C   UNL     1       2.615  -5.392   2.861  0.00  0.00    +0.000 A 
ATOM     24  C   UNL     1       1.979  -6.607   3.085  0.00  0.00    +0.000 A 
ATOM     25  C   UNL     1       0.598  -6.682   2.950  0.00  0.00    +0.000 A 
ATOM     26 CL   UNL     1      -0.203  -8.173   3.247  0.00  0.00    +0.000 Cl
ATOM     27  C   UNL     1      -0.136  -5.555   2.581  0.00  0.00    +0.000 A 
ATOM     28  C   UNL     1       0.503  -4.332   2.352  0.00  0.00    +0.000 A 
ENDBRANCH  21  22
ENDBRANCH  20  21
ENDBRANCH  16  20
ENDBRANCH   1  16
TORSDOF 5
ENDMDL
MODEL       17
REMARK  Name = CHEMBL4077644-3.5
REMARK  6 active torsions:
REMARK  status: ('A' for Active; 'I' for Inactive)
REMARK    1  A    between atoms: C_9  and  N_10
REMARK    2  A    between atoms: N_10  and  C_11
REMARK    3  A    between atoms: N_10  and  C_20
REMARK    4  A    between atoms: C_11  and  C_12
REMARK    5  A    between atoms: C_12  and  C_13
REMARK    6  A    between atoms: C_20  and  C_21
REMARK                            x       y       z     vdW  Elec       q    Type
REMARK                         _______ _______ _______ _____ _____    ______ ____
ROOT
ATOM      1  N   UNL     1       8.508  -3.713   0.501  0.00  0.00    +0.000 NA
ENDROOT
BRANCH   1  10
ATOM      2  N   UNL     1       2.125   1.383   1.003  0.00  0.00    +0.000 N 
ATOM      3  C   UNL     1       2.927   0.590   0.306  0.00  0.00    +0.000 A 
ATOM      4  N   UNL     1       2.790   0.312  -0.984  0.00  0.00    +0.000 NA
ATOM      5  N   UNL     1       3.861  -0.454  -1.194  0.00  0.00    +0.000 N 
ATOM      6  C   UNL     1       4.572  -0.664  -0.055  0.00  0.00    +0.000 A 
ATOM      7  N   UNL     1       5.730  -1.390  -0.020  0.00  0.00    +0.000 N 
ATOM      8  C   UNL     1       6.070  -2.374  -1.042  0.00  0.00    +0.000 C 
ATOM      9  C   UNL     1       6.131  -3.774  -0.442  0.00  0.00    +0.000 C 
ATOM     10  C   UNL     1       7.048  -3.852   0.813  0.00  0.00    +0.000 C 
ATOM     11  C   UNL     1       6.432  -2.836   1.796  0.00  0.00    +0.000 C 
ATOM     12  C   UNL     1       6.507  -1.428   1.220  0.00  0.00    +0.000 C 
ATOM     13  N   UNL     1       3.981  -0.008   0.923  0.00  0.00    +0.000 NA
ATOM     14  H   UNL     1       1.228   1.604   0.588  0.00  0.00    +0.000 HD
ATOM     15  H   UNL     1       2.135   1.308   2.009  0.00  0.00    +0.000 HD
ATOM     16  H   UNL     1       4.073  -0.760  -2.131  0.00  0.00    +0.000 HD
ENDBRANCH   1  10
BRANCH   1  17
ATOM     17  C   UNL     1       9.380  -3.779   1.705  0.00  0.00    +0.000 C 
BRANCH  17  18
ATOM     18  C   UNL     1      10.876  -3.460   1.445  0.00  0.00    +0.000 C 
BRANCH  18  19
ATOM     19  C   UNL     1      11.718  -3.580   2.692  0.00  0.00    +0.000 A 
ATOM     20  C   UNL     1      12.334  -4.792   3.042  0.00  0.00    +0.000 A 
ATOM     21  C   UNL     1      13.043  -4.901   4.240  0.00  0.00    +0.000 A 
ATOM     22  C   UNL     1      13.139  -3.798   5.086  0.00  0.00    +0.000 A 
ATOM     23 CL   UNL     1      13.956  -3.942   6.593  0.00  0.00    +0.000 Cl
ATOM     24  C   UNL     1      12.559  -2.582   4.731  0.00  0.00    +0.000 A 
ATOM     25  C   UNL     1      11.856  -2.471   3.533  0.00  0.00    +0.000 A 
ENDBRANCH  18  19
ENDBRANCH  17  18
ENDBRANCH   1  17
BRANCH   1  26
ATOM     26  C   UNL     1       9.000  -4.645  -0.557  0.00  0.00    +0.000 C 
BRANCH  26  27
ATOM     27  C   UNL     1       8.930  -6.143  -0.253  0.00  0.00    +0.000 A 
ATOM     28  C   UNL     1       7.680  -6.746  -0.055  0.00  0.00    +0.000 A 
ATOM     29  C   UNL     1       7.524  -8.075   0.318  0.00  0.00    +0.000 A 
ATOM     30  C   UNL     1       8.653  -8.866   0.448  0.00  0.00    +0.000 A 
ATOM     31  C   UNL     1       9.910  -8.316   0.193  0.00  0.00    +0.000 A 
ATOM     32  C   UNL     1      10.056  -6.972  -0.169  0.00  0.00    +0.000 A 
ATOM     33 CL   UNL     1      11.656  -6.461  -0.560  0.00  0.00    +0.000 Cl
ENDBRANCH  26  27
ENDBRANCH   1  26
TORSDOF 6
ENDMDL
MODEL       18
REMARK  Name = CHEMBL1215473-5450
REMARK  4 active torsions:
REMARK  status: ('A' for Active; 'I' for Inactive)
REMARK    1  A    between atoms: N_9  and  C_10
REMARK    2  A    between atoms: C_10  and  C_11
REMARK    3  A    between atoms: C_11  and  O_12
REMARK    4  A    between atoms: O_12  and  C_13
REMARK                            x       y       z     vdW  Elec       q    Type
REMARK                         _______ _______ _______ _____ _____    ______ ____
ROOT
ATOM      1  N   UNL     1       1.552   0.691  -0.690  0.00  0.00    +0.000 N 
ATOM      2  C   UNL     1       2.736   0.409  -0.157  0.00  0.00    +0.000 A 
ATOM      3  N   UNL     1       3.324   1.095   0.815  0.00  0.00    +0.000 NA
ATOM      4  N   UNL     1       4.480   0.425   0.935  0.00  0.00    +0.000 N 
ATOM      5  C   UNL     1       4.544  -0.640   0.076  0.00  0.00    +0.000 A 
ATOM      6  N   UNL     1       5.631  -1.438  -0.046  0.00  0.00    +0.000 N 
ATOM      7  C   UNL     1       6.705  -1.544   0.942  0.00  0.00    +0.000 C 
ATOM      8  C   UNL     1       8.082  -1.602   0.232  0.00  0.00    +0.000 C 
ATOM      9  N   UNL     1       8.196  -2.624  -0.838  0.00  0.00    +0.000 NA
ATOM     10  C   UNL     1       7.063  -2.423  -1.780  0.00  0.00    +0.000 C 
ATOM     11  C   UNL     1       5.663  -2.434  -1.123  0.00  0.00    +0.000 C 
ATOM     12  N   UNL     1       3.428  -0.664  -0.618  0.00  0.00    +0.000 NA
ATOM     13  H   UNL     1       0.951   1.327  -0.187  0.00  0.00    +0.000 HD
ATOM     14  H   UNL     1       1.085  -0.039  -1.210  0.00  0.00    +0.000 HD
ATOM     15  H   UNL     1       5.187   0.768   1.569  0.00  0.00    +0.000 HD
ENDROOT
BRANCH   9  16
ATOM     16  C   UNL     1       8.238  -3.983  -0.263  0.00  0.00    +0.000 C 
BRANCH  16  17
ATOM     17  C   UNL     1       8.444  -5.079  -1.316  0.00  0.00    +0.000 C 
BRANCH  17  18
ATOM     18  O   UNL     1       8.491  -6.357  -0.678  0.00  0.00    +0.000 OA
BRANCH  18  19
ATOM     19  C   UNL     1       8.643  -7.426  -1.523  0.00  0.00    +0.000 A 
ATOM     20  C   UNL     1       8.751  -7.356  -2.915  0.00  0.00    +0.000 A 
ATOM     21  C   UNL     1       8.928  -8.519  -3.671  0.00  0.00    +0.000 A 
ATOM     22  C   UNL     1       8.995  -9.755  -3.031  0.00  0.00    +0.000 A 
ATOM     23 BR   UNL     1       9.260 -11.321  -4.053  0.00  0.00    +0.000 Br
ATOM     24  C   UNL     1       8.873  -9.839  -1.647  0.00  0.00    +0.000 A 
ATOM     25  C   UNL     1       8.695  -8.675  -0.895  0.00  0.00    +0.000 A 
ENDBRANCH  18  19
ENDBRANCH  17  18
ENDBRANCH  16  17
ENDBRANCH   9  16
TORSDOF 4
ENDMDL
MODEL       19
REMARK  Name = CHEMBL197199-4500
REMARK  13 active torsions:
REMARK  status: ('A' for Active; 'I' for Inactive)
REMARK    1  A    between atoms: C_1  and  N_2
REMARK    2  A    between atoms: N_8  and  C_9
REMARK    3  A    between atoms: C_9  and  C_10
REMARK    4  A    between atoms: C_10  and  C_11
REMARK    5  A    between atoms: C_11  and  C_12
REMARK    6  A    between atoms: C_16  and  C_17
REMARK    7  A    between atoms: C_22  and  C_23
REMARK    8  A    between atoms: C_23  and  O_25
REMARK    9  A    between atoms: CA_30  and  C_31
REMARK   10  A    between atoms: C_31  and  OXT_33
REMARK   11  A    between atoms: CA_37  and  CB_38
REMARK   12  A    between atoms: CB_38  and  CG_39
REMARK   13  A    between atoms: N_45  and  C_46
REMARK                            x       y       z     vdW  Elec       q    Type
REMARK                         _______ _______ _______ _____ _____    ______ ____
ROOT
ATOM      1  C   UNK A   1      11.038   2.839   3.732  0.00  0.00    +0.000 C 
ATOM      2  N   UNK A   1      11.488   3.921   2.818  0.00  0.00    +0.000 N 
ATOM      3  C   UNK A   1      11.246   5.267   2.927  0.00  0.00    +0.000 C 
ATOM      4  O   UNK A   1      10.967   5.803   4.000  0.00  0.00    +0.000 OA
ATOM      5  C   UNK A   1      11.014   6.008   1.578  0.00  0.00    +0.000 C 
ATOM      6  C   UNK A   1      11.534   5.263   0.347  0.00  0.00    +0.000 C 
ATOM      7  N   UNK A   1       9.551   6.151   1.489  0.00  0.00    +0.000 N 
ATOM      8  C   UNK A   1       8.932   6.766   0.429  0.00  0.00    +0.000 C 
ATOM      9  O   UNK A   1       9.514   7.456  -0.397  0.00  0.00    +0.000 OA
ATOM     10  C   UNK A   1       7.458   6.451   0.315  0.00  0.00    +0.000 C 
ATOM     11  C   UNK A   1       7.101   5.659  -0.949  0.00  0.00    +0.000 C 
ATOM     12  N   ASN A   3       7.349   4.218  -0.768  0.00  0.00    +0.000 N 
ATOM     13  CG  ASN A   3       6.541   3.284  -1.385  0.00  0.00    +0.000 C 
ATOM     14  OD1 ASN A   3       5.612   3.581  -2.138  0.00  0.00    +0.000 OA
ATOM     15  CB  ASN A   3       6.733   1.852  -0.904  0.00  0.00    +0.000 C 
ATOM     16  CA  ASN A   3       7.081   1.822   0.583  0.00  0.00    +0.000 C 
ATOM     17  N   ASN A   3       7.171   0.456   1.121  0.00  0.00    +0.000 N 
ATOM     18  C   PHE A   2       8.182  -0.258   1.710  0.00  0.00    +0.000 C 
ATOM     19  O   PHE A   2       7.847  -1.253   2.365  0.00  0.00    +0.000 OA
ATOM     20  CA  PHE A   2       9.692   0.126   1.572  0.00  0.00    +0.000 C 
ATOM     21  N   PHE A   2      10.257   0.602   2.864  0.00  0.00    +0.000 N 
ATOM     22  C   ACE A   0      10.525  -0.381   3.912  0.00  0.00    +0.000 C 
ATOM     23  C   UNK A   1      11.181   1.629   2.754  0.00  0.00    +0.000 C 
ATOM     24  O   UNK A   1      12.006   1.654   1.832  0.00  0.00    +0.000 OA
ATOM     25  H   UNK A   1      12.025   3.590   2.018  0.00  0.00    +0.000 HD
ATOM     26  H   UNK A   1       9.064   6.197   2.382  0.00  0.00    +0.000 HD
ATOM     27  H   ASN A   3       8.322   3.969  -0.634  0.00  0.00    +0.000 HD
ATOM     28  H   ASN A   3       6.285   0.011   1.344  0.00  0.00    +0.000 HD
ENDROOT
BRANCH  11  29
ATOM     29  C   UNK A   1       7.851   6.068  -2.224  0.00  0.00    +0.000 C 
ATOM     30  O   UNK A   1       8.860   5.495  -2.621  0.00  0.00    +0.000 OA
BRANCH  29  31
ATOM     31  O   UNK A   1       7.275   7.087  -2.897  0.00  0.00    +0.000 OA
ATOM     32  H   UNK A   1       6.441   7.416  -2.514  0.00  0.00    +0.000 HD
ENDBRANCH  29  31
ENDBRANCH  11  29
BRANCH  16  33
ATOM     33  C   ASN A   3       6.110   2.684   1.430  0.00  0.00    +0.000 C 
ATOM     34  O   ASN A   3       6.392   2.981   2.586  0.00  0.00    +0.000 OA
BRANCH  33  35
ATOM     35  OXT ASN A   3       4.926   3.067   0.910  0.00  0.00    +0.000 OA
ATOM     36  HXT ASN A   3       4.674   2.855  -0.011  0.00  0.00    +0.000 HD
ENDBRANCH  33  35
ENDBRANCH  16  33
BRANCH   1  37
ATOM     37  C   UNK A   1       9.593   3.107   4.199  0.00  0.00    +0.000 C 
BRANCH  37  38
ATOM     38  C   UNK A   1       8.940   2.172   5.221  0.00  0.00    +0.000 C 
BRANCH  38  39
ATOM     39  C   UNK A   1       9.697   1.999   6.545  0.00  0.00    +0.000 C 
BRANCH  39  47
ATOM     40  C   UNK A   1      12.359   0.491  12.321  0.00  0.00    +0.000 C 
ATOM     41  N   UNK A   1      11.919   0.905  11.008  0.00  0.00    +0.000 N 
ATOM     42  C   UNK A   1      10.834   0.268  10.449  0.00  0.00    +0.000 C 
ATOM     43  O   UNK A   1      10.224  -0.625  11.029  0.00  0.00    +0.000 OA
ATOM     44  N   UNK A   1      10.498   0.752   9.201  0.00  0.00    +0.000 N 
ATOM     45  C   UNK A   1       9.418   0.344   8.461  0.00  0.00    +0.000 C 
ATOM     46  N   UNK A   1       8.635  -0.602   8.857  0.00  0.00    +0.000 NA
ATOM     47  N   UNK A   1       9.102   0.913   7.277  0.00  0.00    +0.000 N 
ATOM     48  H   UNK A   1      12.615   1.285  10.385  0.00  0.00    +0.000 HD
ATOM     49  H   UNK A   1      11.007   1.547   8.862  0.00  0.00    +0.000 HD
ATOM     50  H   UNK A   1       8.969  -0.947   9.774  0.00  0.00    +0.000 HD
ATOM     51  H   UNK A   1       8.212   0.552   6.936  0.00  0.00    +0.000 HD
ENDBRANCH  39  47
ENDBRANCH  38  39
ENDBRANCH  37  38
ENDBRANCH   1  37
BRANCH  20  52
ATOM     52  CB  PHE A   2      10.490  -1.061   0.967  0.00  0.00    +0.000 C 
BRANCH  52  53
ATOM     53  CG  PHE A   2      10.042  -1.362  -0.445  0.00  0.00    +0.000 A 
ATOM     54  CD1 PHE A   2      10.166  -0.387  -1.445  0.00  0.00    +0.000 A 
ATOM     55  CE1 PHE A   2       9.580  -0.581  -2.694  0.00  0.00    +0.000 A 
ATOM     56  CZ  PHE A   2       8.910  -1.770  -2.971  0.00  0.00    +0.000 A 
ATOM     57  CE2 PHE A   2       8.860  -2.782  -2.014  0.00  0.00    +0.000 A 
ATOM     58  CD2 PHE A   2       9.425  -2.581  -0.754  0.00  0.00    +0.000 A 
ENDBRANCH  52  53
ENDBRANCH  20  52
TORSDOF 10
ENDMDL
MODEL       20
REMARK  Name = CHEMBL4077482-5.4
REMARK  6 active torsions:
REMARK  status: ('A' for Active; 'I' for Inactive)
REMARK    1  A    between atoms: C_9  and  N_10
REMARK    2  A    between atoms: N_10  and  C_11
REMARK    3  A    between atoms: N_10  and  C_20
REMARK    4  A    between atoms: C_11  and  C_12
REMARK    5  A    between atoms: C_12  and  C_13
REMARK    6  A    between atoms: C_20  and  C_21
REMARK                            x       y       z     vdW  Elec       q    Type
REMARK                         _______ _______ _______ _____ _____    ______ ____
ROOT
ATOM      1  N   UNL     1       8.318  -3.713   0.515  0.00  0.00    +0.000 NA
ENDROOT
BRANCH   1  10
ATOM      2  N   UNL     1       1.772   1.151   1.134  0.00  0.00    +0.000 N 
ATOM      3  C   UNL     1       2.644   0.475   0.390  0.00  0.00    +0.000 A 
ATOM      4  N   UNL     1       2.553   0.294  -0.922  0.00  0.00    +0.000 NA
ATOM      5  N   UNL     1       3.660  -0.425  -1.155  0.00  0.00    +0.000 N 
ATOM      6  C   UNL     1       4.375  -0.655  -0.006  0.00  0.00    +0.000 A 
ATOM      7  N   UNL     1       5.548  -1.342   0.015  0.00  0.00    +0.000 N 
ATOM      8  C   UNL     1       5.934  -2.309  -1.007  0.00  0.00    +0.000 C 
ATOM      9  C   UNL     1       5.941  -3.722  -0.424  0.00  0.00    +0.000 C 
ATOM     10  C   UNL     1       6.856  -3.847   0.823  0.00  0.00    +0.000 C 
ATOM     11  C   UNL     1       6.295  -2.812   1.832  0.00  0.00    +0.000 C 
ATOM     12  C   UNL     1       6.322  -1.395   1.259  0.00  0.00    +0.000 C 
ATOM     13  N   UNL     1       3.748  -0.055   0.980  0.00  0.00    +0.000 NA
ATOM     14  H   UNL     1       1.149   1.778   0.644  0.00  0.00    +0.000 HD
ATOM     15  H   UNL     1       2.101   1.487   2.029  0.00  0.00    +0.000 HD
ATOM     16  H   UNL     1       3.883  -0.697  -2.103  0.00  0.00    +0.000 HD
ENDBRANCH   1  10
BRANCH   1  17
ATOM     17  C   UNL     1       9.165  -3.729   1.736  0.00  0.00    +0.000 C 
BRANCH  17  18
ATOM     18  C   UNL     1      10.666  -3.398   1.525  0.00  0.00    +0.000 C 
BRANCH  18  19
ATOM     19  C   UNL     1      11.488  -3.588   2.787  0.00  0.00    +0.000 A 
ATOM     20  C   UNL     1      12.536  -4.520   2.822  0.00  0.00    +0.000 A 
ATOM     21  C   UNL     1      13.274  -4.721   3.995  0.00  0.00    +0.000 A 
ATOM     22  C   UNL     1      12.966  -3.986   5.137  0.00  0.00    +0.000 A 
ATOM     23 CL   UNL     1      13.849  -4.251   6.589  0.00  0.00    +0.000 Cl
ATOM     24  C   UNL     1      11.945  -3.039   5.111  0.00  0.00    +0.000 A 
ATOM     25  C   UNL     1      11.214  -2.836   3.938  0.00  0.00    +0.000 A 
ENDBRANCH  18  19
ENDBRANCH  17  18
ENDBRANCH   1  17
BRANCH   1  26
ATOM     26  C   UNL     1       8.793  -4.688  -0.500  0.00  0.00    +0.000 C 
BRANCH  26  27
ATOM     27  C   UNL     1       8.724  -6.160  -0.132  0.00  0.00    +0.000 A 
ATOM     28  C   UNL     1       7.595  -6.929  -0.451  0.00  0.00    +0.000 A 
ATOM     29  C   UNL     1       7.520  -8.278  -0.101  0.00  0.00    +0.000 A 
ATOM     30  C   UNL     1       8.580  -8.885   0.568  0.00  0.00    +0.000 A 
ATOM     31  C   UNL     1       9.714  -8.142   0.881  0.00  0.00    +0.000 A 
ATOM     32  C   UNL     1       9.787  -6.794   0.529  0.00  0.00    +0.000 A 
ENDBRANCH  26  27
ENDBRANCH   1  26
TORSDOF 6
ENDMDL
MODEL       21
REMARK  Name = CHEMBL4086986-348
REMARK  5 active torsions:
REMARK  status: ('A' for Active; 'I' for Inactive)
REMARK    1  A    between atoms: C_1  and  N_2
REMARK    2  A    between atoms: N_2  and  C_3
REMARK    3  A    between atoms: N_2  and  C_12
REMARK    4  A    between atoms: C_3  and  C_4
REMARK    5  A    between atoms: C_4  and  C_5
REMARK                            x       y       z     vdW  Elec       q    Type
REMARK                         _______ _______ _______ _____ _____    ______ ____
ROOT
ATOM      1  C   UNL     1       2.964  -0.624  -1.286  0.00  0.00    +0.000 C 
ATOM      2  C   UNL     1       2.060  -0.867  -2.513  0.00  0.00    +0.000 C 
ATOM      3  C   UNL     1       1.000  -1.921  -2.224  0.00  0.00    +0.000 C 
ATOM      4  N   UNL     1       1.662  -3.175  -1.912  0.00  0.00    +0.000 N 
ATOM      5  C   UNL     1       1.246  -4.279  -2.568  0.00  0.00    +0.000 A 
ATOM      6  N   UNL     1       0.520  -4.338  -3.662  0.00  0.00    +0.000 NA
ATOM      7  C   UNL     1       0.418  -5.662  -3.917  0.00  0.00    +0.000 A 
ATOM      8  N   UNL     1      -0.238  -6.037  -5.015  0.00  0.00    +0.000 N 
ATOM      9  N   UNL     1       1.045  -6.460  -3.060  0.00  0.00    +0.000 NA
ATOM     10  N   UNL     1       1.539  -5.565  -2.189  0.00  0.00    +0.000 N 
ATOM     11  C   UNL     1       2.538  -3.119  -0.752  0.00  0.00    +0.000 C 
ATOM     12  C   UNL     1       3.594  -2.027  -1.000  0.00  0.00    +0.000 C 
ATOM     13  H   UNL     1      -0.371  -5.314  -5.711  0.00  0.00    +0.000 HD
ATOM     14  H   UNL     1      -0.002  -6.944  -5.389  0.00  0.00    +0.000 HD
ATOM     15  H   UNL     1       2.051  -5.882  -1.385  0.00  0.00    +0.000 HD
ENDROOT
BRANCH   1  17
ATOM     16  C   UNL     1       3.266   0.121   1.027  0.00  0.00    +0.000 C 
ATOM     17  N   UNL     1       2.305  -0.011  -0.091  0.00  0.00    +0.000 NA
BRANCH  17  18
ATOM     18  C   UNL     1       1.725   1.352  -0.290  0.00  0.00    +0.000 C 
BRANCH  18  19
ATOM     19  C   UNL     1       0.482   1.593  -1.183  0.00  0.00    +0.000 C 
BRANCH  19  20
ATOM     20  C   UNL     1      -0.683   0.646  -1.003  0.00  0.00    +0.000 A 
ATOM     21  C   UNL     1      -1.050   0.186   0.269  0.00  0.00    +0.000 A 
ATOM     22  C   UNL     1      -2.079  -0.744   0.423  0.00  0.00    +0.000 A 
ATOM     23  C   UNL     1      -2.756  -1.219  -0.697  0.00  0.00    +0.000 A 
ATOM     24 BR   UNL     1      -4.134  -2.494  -0.482  0.00  0.00    +0.000 Br
ATOM     25  C   UNL     1      -2.419  -0.765  -1.969  0.00  0.00    +0.000 A 
ATOM     26  C   UNL     1      -1.402   0.184  -2.120  0.00  0.00    +0.000 A 
ENDBRANCH  19  20
ENDBRANCH  18  19
ENDBRANCH  17  18
ENDBRANCH   1  17
TORSDOF 4
ENDMDL
MODEL       22
REMARK  Name = CHEMBL4098997-73
REMARK  6 active torsions:
REMARK  status: ('A' for Active; 'I' for Inactive)
REMARK    1  A    between atoms: C_1  and  C_2
REMARK    2  A    between atoms: C_2  and  N_3
REMARK    3  A    between atoms: N_3  and  C_4
REMARK    4  A    between atoms: N_3  and  C_13
REMARK    5  A    between atoms: C_4  and  C_5
REMARK    6  A    between atoms: C_5  and  C_6
REMARK                            x       y       z     vdW  Elec       q    Type
REMARK                         _______ _______ _______ _____ _____    ______ ____
ROOT
ATOM      1  C   UNL     1       4.413  -0.586  -0.987  0.00  0.00    +0.000 C 
ATOM      2  C   UNL     1       5.155  -1.115  -2.240  0.00  0.00    +0.000 C 
ATOM      3  C   UNL     1       5.140  -2.640  -2.356  0.00  0.00    +0.000 C 
ATOM      4  N   UNL     1       5.596  -3.261  -1.111  0.00  0.00    +0.000 N 
ATOM      5  C   UNL     1       6.615  -4.158  -1.143  0.00  0.00    +0.000 A 
ATOM      6  N   UNL     1       7.457  -4.409  -2.119  0.00  0.00    +0.000 NA
ATOM      7  C   UNL     1       8.266  -5.374  -1.607  0.00  0.00    +0.000 A 
ATOM      8  N   UNL     1       9.280  -5.812  -2.349  0.00  0.00    +0.000 N 
ATOM      9  N   UNL     1       7.995  -5.751  -0.367  0.00  0.00    +0.000 NA
ATOM     10  N   UNL     1       6.919  -4.993  -0.103  0.00  0.00    +0.000 N 
ATOM     11  C   UNL     1       4.947  -2.813   0.115  0.00  0.00    +0.000 C 
ATOM     12  C   UNL     1       5.075  -1.296   0.217  0.00  0.00    +0.000 C 
ATOM     13  H   UNL     1       9.557  -5.218  -3.115  0.00  0.00    +0.000 HD
ATOM     14  H   UNL     1      10.045  -6.246  -1.852  0.00  0.00    +0.000 HD
ATOM     15  H   UNL     1       6.444  -5.104   0.781  0.00  0.00    +0.000 HD
ENDROOT
BRANCH   1  16
ATOM     16  N   UNL     1       2.920  -0.710  -1.021  0.00  0.00    +0.000 NA
BRANCH  16  18
ATOM     17  C   UNL     1       0.797  -0.334   0.366  0.00  0.00    +0.000 C 
ATOM     18  C   UNL     1       2.310  -0.184   0.222  0.00  0.00    +0.000 C 
ENDBRANCH  16  18
BRANCH  16  19
ATOM     19  C   UNL     1       2.310  -0.123  -2.244  0.00  0.00    +0.000 C 
BRANCH  19  20
ATOM     20  C   UNL     1       2.512   1.390  -2.466  0.00  0.00    +0.000 C 
BRANCH  20  21
ATOM     21  C   UNL     1       1.993   1.861  -3.808  0.00  0.00    +0.000 A 
ATOM     22  C   UNL     1       0.645   2.211  -3.971  0.00  0.00    +0.000 A 
ATOM     23  C   UNL     1       0.174   2.665  -5.207  0.00  0.00    +0.000 A 
ATOM     24  C   UNL     1       1.048   2.769  -6.287  0.00  0.00    +0.000 A 
ATOM     25 BR   UNL     1       0.413   3.395  -7.953  0.00  0.00    +0.000 Br
ATOM     26  C   UNL     1       2.388   2.417  -6.144  0.00  0.00    +0.000 A 
ATOM     27  C   UNL     1       2.858   1.963  -4.909  0.00  0.00    +0.000 A 
ENDBRANCH  20  21
ENDBRANCH  19  20
ENDBRANCH  16  19
ENDBRANCH   1  16
TORSDOF 5
ENDMDL
