CHEMBL1230997-40
 OpenBabel12202021063D

 52 55  0  0  1  0  0  0  0  0999 V2000
   -2.7230   51.0030   66.8700 C   0  0  1  0  0  3  0  0  0  0  0  0
   -2.8470   50.9230   65.2960 C   0  0  2  0  0  3  0  0  0  0  0  0
   -4.3280   51.1970   64.7570 C   0  0  2  0  0  3  0  0  0  0  0  0
   -5.2910   50.1670   65.4100 C   0  0  1  0  0  3  0  0  0  0  0  0
   -5.2310   50.4990   66.7930 O   0  0  0  0  0  0  0  0  0  0  0  0
   -3.9590   50.1040   67.4060 C   0  0  2  0  0  3  0  0  0  0  0  0
   -4.3950   51.3180   63.2940 N   0  0  0  0  0  0  0  0  0  0  0  0
   -5.3300   52.0700   62.6360 C   0  0  0  0  0  0  0  0  0  0  0  0
   -5.2050   52.0560   61.1350 C   0  0  0  0  0  1  0  0  0  0  0  0
   -6.2020   52.6990   63.2260 O   0  0  0  0  0  0  0  0  0  0  0  0
   -3.8160   50.6930   62.7470 H   0  0  0  0  0  0  0  0  0  0  0  0
   -2.3740   49.6160   64.9150 O   0  0  0  0  0  0  0  0  0  0  0  0
   -2.9640   49.2210   64.2420 H   0  0  0  0  0  0  0  0  0  0  0  0
   -4.4090   50.1080   68.8740 C   0  0  0  0  0  2  0  0  0  0  0  0
   -3.3010   49.6320   69.6870 O   0  0  0  0  0  0  0  0  0  0  0  0
   -3.6690   49.5140   70.5950 H   0  0  0  0  0  0  0  0  0  0  0  0
   -6.6510   49.9280   65.0400 O   0  0  0  0  0  0  0  0  0  0  0  0
   -7.0990   49.0090   64.0550 C   0  0  2  0  0  3  0  0  0  0  0  0
   -8.1650   48.0150   64.5650 C   0  0  2  0  0  3  0  0  0  0  0  0
   -7.4610   46.6800   64.8720 C   0  0  2  0  0  3  0  0  0  0  0  0
   -7.3970   46.4240   66.2700 O   0  0  0  0  0  0  0  0  0  0  0  0
   -6.0870   46.5240   66.6080 C   0  0  0  0  0  0  0  0  0  0  0  0
   -5.8190   46.3010   67.9310 N   0  0  0  0  0  0  0  0  0  0  0  0
   -4.4550   46.2910   68.4200 C   0  0  0  0  0  1  0  0  0  0  0  0
   -6.8620   46.2150   68.9420 C   0  0  0  0  0  1  0  0  0  0  0  0
   -5.2250   46.7660   65.6740 N   0  0  0  0  0  0  0  0  0  0  0  0
   -6.0220   46.7870   64.4310 C   0  0  2  0  0  3  0  0  0  0  0  0
   -5.8920   48.1060   63.6620 C   0  0  1  0  0  3  0  0  0  0  0  0
   -5.8700   47.8350   62.2520 O   0  0  0  0  0  0  0  0  0  0  0  0
   -6.7770   47.7350   61.9240 H   0  0  0  0  0  0  0  0  0  0  0  0
   -9.2240   47.7650   63.4860 C   0  0  0  0  0  2  0  0  0  0  0  0
   -8.9390   48.5300   62.3280 O   0  0  0  0  0  0  0  0  0  0  0  0
   -8.3550   47.9890   61.7680 H   0  0  0  0  0  0  0  0  0  0  0  0
   -1.3850   50.5770   67.3710 O   0  0  0  0  0  0  0  0  0  0  0  0
    0.6840   49.2200   66.8920 C   0  0  1  0  0  3  0  0  0  0  0  0
   -0.8780   49.1600   67.2420 C   0  0  1  0  0  3  0  0  0  0  0  0
   -1.0380   48.3870   68.4610 O   0  0  0  0  0  0  0  0  0  0  0  0
   -0.3100   47.1210   68.5620 C   0  0  1  0  0  3  0  0  0  0  0  0
    1.2120   47.2920   68.4190 C   0  0  2  0  0  3  0  0  0  0  0  0
    1.4920   47.8890   67.0540 C   0  0  1  0  0  3  0  0  0  0  0  0
    1.4330   50.2580   63.3070 C   0  0  0  0  0  1  0  0  0  0  0  0
    0.7560   49.4560   64.3930 C   0  0  0  0  0  0  0  0  0  0  0  0
    0.0300   48.4910   64.1840 O   0  0  0  0  0  0  0  0  0  0  0  0
    1.0540   49.9070   65.6540 N   0  0  0  0  0  0  0  0  0  0  0  0
    1.7390   50.6500   65.7400 H   0  0  0  0  0  0  0  0  0  0  0  0
    1.2820   46.8330   66.0980 O   0  0  0  0  0  0  0  0  0  0  0  0
    2.1240   46.6010   65.6610 H   0  0  0  0  0  0  0  0  0  0  0  0
    1.9160   46.0410   68.5480 O   0  0  0  0  0  0  0  0  0  0  0  0
    2.0570   45.6930   67.6430 H   0  0  0  0  0  0  0  0  0  0  0  0
   -0.5670   46.4620   69.9400 C   0  0  0  0  0  2  0  0  0  0  0  0
   -1.7080   47.0120   70.5990 O   0  0  0  0  0  0  0  0  0  0  0  0
   -1.4800   47.1390   71.5320 H   0  0  0  0  0  0  0  0  0  0  0  0
  1 34  1  6  0  0  0
  1  6  1  0  0  0  0
  2 12  1  1  0  0  0
  2  1  1  0  0  0  0
  3  7  1  6  0  0  0
  3  2  1  0  0  0  0
  3  4  1  0  0  0  0
  4 17  1  6  0  0  0
  4  5  1  0  0  0  0
  5  6  1  0  0  0  0
  6 14  1  1  0  0  0
  8 10  2  0  0  0  0
  8  7  1  0  0  0  0
  9  8  1  0  0  0  0
 11  7  1  0  0  0  0
 13 12  1  0  0  0  0
 14 15  1  0  0  0  0
 15 16  1  0  0  0  0
 18 19  1  0  0  0  0
 18 17  1  1  0  0  0
 19 31  1  6  0  0  0
 19 20  1  0  0  0  0
 20 21  1  1  0  0  0
 21 22  1  0  0  0  0
 22 23  1  0  0  0  0
 23 24  1  0  0  0  0
 23 25  1  0  0  0  0
 26 22  2  0  0  0  0
 27 20  1  0  0  0  0
 27 26  1  1  0  0  0
 28 29  1  6  0  0  0
 28 18  1  0  0  0  0
 28 27  1  0  0  0  0
 30 29  1  0  0  0  0
 32 31  1  0  0  0  0
 33 32  1  0  0  0  0
 35 44  1  6  0  0  0
 35 40  1  0  0  0  0
 35 36  1  0  0  0  0
 36 34  1  1  0  0  0
 36 37  1  0  0  0  0
 37 38  1  0  0  0  0
 38 50  1  1  0  0  0
 39 48  1  6  0  0  0
 39 38  1  0  0  0  0
 40 46  1  6  0  0  0
 40 39  1  0  0  0  0
 41 42  1  0  0  0  0
 42 44  1  0  0  0  0
 43 42  2  0  0  0  0
 44 45  1  0  0  0  0
 47 46  1  0  0  0  0
 49 48  1  0  0  0  0
 50 51  1  0  0  0  0
 51 52  1  0  0  0  0
M  END
>  <MODEL>
1

>  <REMARK>
 VINA RESULT:      -7.6      0.000      0.000
  Name = CHEMBL1230997-40
  20 active torsions:
  status: ('A' for Active; 'I' for Inactive)
    1  A    between atoms: C_1  and  C_2
    2  A    between atoms: N_4  and  C_5
    3  A    between atoms: C_6  and  O_7
    4  A    between atoms: O_7  and  C_8
    5  A    between atoms: C_9  and  O_10
    6  A    between atoms: C_11  and  N_12
    7  A    between atoms: C_13  and  C_14
    8  A    between atoms: C_16  and  O_17
    9  A    between atoms: O_17  and  C_18
   10  A    between atoms: C_19  and  C_20
   11  A    between atoms: C_20  and  O_21
   12  A    between atoms: N_25  and  C_26
   13  A    between atoms: N_25  and  C_27
   14  A    between atoms: C_30  and  O_31
   15  A    between atoms: C_33  and  C_34
   16  A    between atoms: C_34  and  O_35
   17  A    between atoms: C_37  and  C_38
   18  A    between atoms: C_38  and  O_39
   19  A    between atoms: C_40  and  O_41
   20  A    between atoms: C_42  and  O_43
                            x       y       z     vdW  Elec       q    Type
                         _______ _______ _______ _____ _____    ______ ____

>  <TORSDO>
F 16

>  <rfscore_v2>
6.223647393051391

>  <vina_affinity>
-6.902314128609483

>  <vina_gauss1>
89.85980481222744

>  <vina_gauss2>
1728.026717582914

>  <vina_repulsion>
3.1778985864518496

>  <vina_hydrophobic>
6.226381748323256

>  <vina_hydrogen>
3.548552889443972

>  <vina_intra_gauss1>
104.54085534441309

>  <vina_intra_gauss2>
718.030275325279

>  <vina_intra_repulsion>
5.4517728301447

>  <vina_intra_hydrophobic>
0.0

>  <vina_intra_hydrogen>
7.04432660741441

>  <vina_num_rotors>
12.0

>  <rfscore_v3>
5.812415970584967

>  <PLEClinear_p5_l1_s65536>
5.511719443492068

>  <nnscore>
5.8012813123490945

$$$$
CHEMBL1230997-40
 OpenBabel12202021063D

 52 55  0  0  1  0  0  0  0  0999 V2000
   -2.9990   47.7150   67.2170 C   0  0  1  0  0  3  0  0  0  0  0  0
   -4.3200   48.4930   67.6010 C   0  0  2  0  0  3  0  0  0  0  0  0
   -5.0530   49.1680   66.3490 C   0  0  2  0  0  3  0  0  0  0  0  0
   -4.0560   50.1400   65.6590 C   0  0  1  0  0  3  0  0  0  0  0  0
   -3.0320   49.2730   65.1860 O   0  0  0  0  0  0  0  0  0  0  0  0
   -2.1940   48.7560   66.2730 C   0  0  2  0  0  3  0  0  0  0  0  0
   -6.3750   49.7140   66.6810 N   0  0  0  0  0  0  0  0  0  0  0  0
   -7.5150   49.4250   65.9810 C   0  0  0  0  0  0  0  0  0  0  0  0
   -8.7610   50.0920   66.5040 C   0  0  0  0  0  1  0  0  0  0  0  0
   -7.5150   48.6870   65.0020 O   0  0  0  0  0  0  0  0  0  0  0  0
   -6.4130   50.4590   67.3670 H   0  0  0  0  0  0  0  0  0  0  0  0
   -3.9450   49.4710   68.5910 O   0  0  0  0  0  0  0  0  0  0  0  0
   -3.1220   49.9270   68.3260 H   0  0  0  0  0  0  0  0  0  0  0  0
   -0.9750   48.3410   65.4360 C   0  0  0  0  0  2  0  0  0  0  0  0
   -1.3840   48.2800   64.0420 O   0  0  0  0  0  0  0  0  0  0  0  0
   -2.3670   48.1910   64.0550 H   0  0  0  0  0  0  0  0  0  0  0  0
   -4.3730   51.0950   64.6430 O   0  0  0  0  0  0  0  0  0  0  0  0
   -5.1840   50.8610   63.5020 C   0  0  2  0  0  3  0  0  0  0  0  0
   -4.5250   49.9520   62.4420 C   0  0  2  0  0  3  0  0  0  0  0  0
   -3.9660   50.8530   61.3260 C   0  0  2  0  0  3  0  0  0  0  0  0
   -2.5440   50.8850   61.3330 O   0  0  0  0  0  0  0  0  0  0  0  0
   -2.2000   52.1400   61.7180 C   0  0  0  0  0  0  0  0  0  0  0  0
   -0.8540   52.3710   61.7810 N   0  0  0  0  0  0  0  0  0  0  0  0
   -0.3420   53.6890   62.0950 C   0  0  0  0  0  1  0  0  0  0  0  0
    0.1330   51.3060   61.6920 C   0  0  0  0  0  1  0  0  0  0  0  0
   -3.1440   52.9970   61.9390 N   0  0  0  0  0  0  0  0  0  0  0  0
   -4.3880   52.2750   61.6030 C   0  0  2  0  0  3  0  0  0  0  0  0
   -5.3800   52.2220   62.7690 C   0  0  1  0  0  3  0  0  0  0  0  0
   -6.7160   52.3630   62.2640 O   0  0  0  0  0  0  0  0  0  0  0  0
   -7.3550   52.2140   62.9780 H   0  0  0  0  0  0  0  0  0  0  0  0
   -5.5640   49.0080   61.8260 C   0  0  0  0  0  2  0  0  0  0  0  0
   -5.9260   47.9990   62.7530 O   0  0  0  0  0  0  0  0  0  0  0  0
   -5.1730   47.8910   63.3600 H   0  0  0  0  0  0  0  0  0  0  0  0
   -2.2360   47.2400   68.4060 O   0  0  0  0  0  0  0  0  0  0  0  0
   -1.6750   45.8340   70.4210 C   0  0  1  0  0  3  0  0  0  0  0  0
   -2.4410   45.8730   69.0140 C   0  0  1  0  0  3  0  0  0  0  0  0
   -3.8380   45.5600   69.2520 O   0  0  0  0  0  0  0  0  0  0  0  0
   -4.1400   44.4160   70.1150 C   0  0  1  0  0  3  0  0  0  0  0  0
   -3.5380   44.5520   71.5230 C   0  0  2  0  0  3  0  0  0  0  0  0
   -2.0310   44.6510   71.3820 C   0  0  1  0  0  3  0  0  0  0  0  0
    1.8540   47.2550   70.3060 C   0  0  0  0  0  1  0  0  0  0  0  0
    0.3730   47.2770   70.6000 C   0  0  0  0  0  0  0  0  0  0  0  0
   -0.2410   48.2700   70.9700 O   0  0  0  0  0  0  0  0  0  0  0  0
   -0.2300   46.0620   70.3880 N   0  0  0  0  0  0  0  0  0  0  0  0
    0.3330   45.3180   69.9890 H   0  0  0  0  0  0  0  0  0  0  0  0
   -1.5670   43.3290   71.0530 O   0  0  0  0  0  0  0  0  0  0  0  0
   -0.5930   43.3230   70.9720 H   0  0  0  0  0  0  0  0  0  0  0  0
   -3.8670   43.4320   72.3680 O   0  0  0  0  0  0  0  0  0  0  0  0
   -4.3150   42.7660   71.8050 H   0  0  0  0  0  0  0  0  0  0  0  0
   -5.6720   44.2640   70.2870 C   0  0  0  0  0  2  0  0  0  0  0  0
   -6.0630   42.9060   70.4940 O   0  0  0  0  0  0  0  0  0  0  0  0
   -6.8760   42.7510   69.9920 H   0  0  0  0  0  0  0  0  0  0  0  0
  1  2  1  0  0  0  0
  1 34  1  1  0  0  0
  2 12  1  1  0  0  0
  3  7  1  1  0  0  0
  3  2  1  0  0  0  0
  4 17  1  6  0  0  0
  4  3  1  0  0  0  0
  5  4  1  0  0  0  0
  5  6  1  0  0  0  0
  6 14  1  6  0  0  0
  6  1  1  0  0  0  0
  7 11  1  0  0  0  0
  8  9  1  0  0  0  0
  8  7  1  0  0  0  0
 10  8  2  0  0  0  0
 13 12  1  0  0  0  0
 15 16  1  0  0  0  0
 15 14  1  0  0  0  0
 18 17  1  1  0  0  0
 19 31  1  6  0  0  0
 19 18  1  0  0  0  0
 20 21  1  1  0  0  0
 20 27  1  0  0  0  0
 20 19  1  0  0  0  0
 21 22  1  0  0  0  0
 22 23  1  0  0  0  0
 22 26  2  0  0  0  0
 23 24  1  0  0  0  0
 25 23  1  0  0  0  0
 27 26  1  1  0  0  0
 27 28  1  0  0  0  0
 28 29  1  6  0  0  0
 28 18  1  0  0  0  0
 29 30  1  0  0  0  0
 31 32  1  0  0  0  0
 32 33  1  0  0  0  0
 35 44  1  6  0  0  0
 35 40  1  0  0  0  0
 36 34  1  1  0  0  0
 36 37  1  0  0  0  0
 36 35  1  0  0  0  0
 37 38  1  0  0  0  0
 38 50  1  1  0  0  0
 38 39  1  0  0  0  0
 39 48  1  1  0  0  0
 40 46  1  6  0  0  0
 40 39  1  0  0  0  0
 41 42  1  0  0  0  0
 42 43  2  0  0  0  0
 44 42  1  0  0  0  0
 45 44  1  0  0  0  0
 47 46  1  0  0  0  0
 49 48  1  0  0  0  0
 50 51  1  0  0  0  0
 52 51  1  0  0  0  0
M  END
>  <MODEL>
2

>  <REMARK>
 VINA RESULT:      -7.5      2.665      5.884
  Name = CHEMBL1230997-40
  20 active torsions:
  status: ('A' for Active; 'I' for Inactive)
    1  A    between atoms: C_1  and  C_2
    2  A    between atoms: N_4  and  C_5
    3  A    between atoms: C_6  and  O_7
    4  A    between atoms: O_7  and  C_8
    5  A    between atoms: C_9  and  O_10
    6  A    between atoms: C_11  and  N_12
    7  A    between atoms: C_13  and  C_14
    8  A    between atoms: C_16  and  O_17
    9  A    between atoms: O_17  and  C_18
   10  A    between atoms: C_19  and  C_20
   11  A    between atoms: C_20  and  O_21
   12  A    between atoms: N_25  and  C_26
   13  A    between atoms: N_25  and  C_27
   14  A    between atoms: C_30  and  O_31
   15  A    between atoms: C_33  and  C_34
   16  A    between atoms: C_34  and  O_35
   17  A    between atoms: C_37  and  C_38
   18  A    between atoms: C_38  and  O_39
   19  A    between atoms: C_40  and  O_41
   20  A    between atoms: C_42  and  O_43
                            x       y       z     vdW  Elec       q    Type
                         _______ _______ _______ _____ _____    ______ ____

>  <TORSDO>
F 16

>  <rfscore_v2>
6.2459517647352625

>  <vina_affinity>
-7.956696285697668

>  <vina_gauss1>
96.15029959006765

>  <vina_gauss2>
1803.4680508810534

>  <vina_repulsion>
2.919926453698528

>  <vina_hydrophobic>
10.344864763114689

>  <vina_hydrogen>
4.945629877727809

>  <vina_intra_gauss1>
61.55229508587142

>  <vina_intra_gauss2>
548.7871195406988

>  <vina_intra_repulsion>
1.623818298073395

>  <vina_intra_hydrophobic>
0.0

>  <vina_intra_hydrogen>
2.934865509820545

>  <vina_num_rotors>
12.0

>  <rfscore_v3>
5.889987360916861

>  <PLEClinear_p5_l1_s65536>
5.478675536860613

>  <nnscore>
4.9232472198414055

$$$$
CHEMBL1230997-40
 OpenBabel12202021063D

 52 55  0  0  1  0  0  0  0  0999 V2000
   -0.4010   50.1000   65.5380 C   0  0  1  0  0  3  0  0  0  0  0  0
   -0.7270   51.2640   64.5200 C   0  0  2  0  0  3  0  0  0  0  0  0
   -0.5170   50.8530   62.9890 C   0  0  2  0  0  3  0  0  0  0  0  0
    0.9540   50.3900   62.7990 C   0  0  1  0  0  3  0  0  0  0  0  0
    1.0330   49.2220   63.6090 O   0  0  0  0  0  0  0  0  0  0  0  0
    1.0340   49.5370   65.0410 C   0  0  2  0  0  3  0  0  0  0  0  0
   -1.0100   51.8670   62.0470 N   0  0  0  0  0  0  0  0  0  0  0  0
   -1.7970   51.5810   60.9640 C   0  0  0  0  0  0  0  0  0  0  0  0
   -2.1920   52.7780   60.1400 C   0  0  0  0  0  1  0  0  0  0  0  0
   -2.1440   50.4370   60.6890 O   0  0  0  0  0  0  0  0  0  0  0  0
   -0.6210   52.7990   62.1190 H   0  0  0  0  0  0  0  0  0  0  0  0
    0.1080   52.3780   64.8930 O   0  0  0  0  0  0  0  0  0  0  0  0
    0.7860   52.0970   65.5400 H   0  0  0  0  0  0  0  0  0  0  0  0
    1.6300   48.2200   65.5580 C   0  0  0  0  0  2  0  0  0  0  0  0
    1.2270   47.1560   64.6530 O   0  0  0  0  0  0  0  0  0  0  0  0
    0.2660   47.2980   64.4840 H   0  0  0  0  0  0  0  0  0  0  0  0
    1.6090   50.1450   61.5510 O   0  0  0  0  0  0  0  0  0  0  0  0
    3.0060   50.2300   61.3120 C   0  0  2  0  0  3  0  0  0  0  0  0
    3.3690   50.7850   59.9170 C   0  0  2  0  0  3  0  0  0  0  0  0
    3.7220   49.5920   59.0100 C   0  0  2  0  0  3  0  0  0  0  0  0
    2.7280   49.3700   58.0170 O   0  0  0  0  0  0  0  0  0  0  0  0
    2.1310   48.1950   58.3430 C   0  0  0  0  0  0  0  0  0  0  0  0
    1.1360   47.8030   57.4900 N   0  0  0  0  0  0  0  0  0  0  0  0
    0.4680   46.5300   57.6660 C   0  0  0  0  0  1  0  0  0  0  0  0
    0.5860   48.6780   56.4660 C   0  0  0  0  0  1  0  0  0  0  0  0
    2.5700   47.5450   59.3720 N   0  0  0  0  0  0  0  0  0  0  0  0
    3.7210   48.3370   59.8480 C   0  0  2  0  0  3  0  0  0  0  0  0
    3.5780   48.7810   61.3070 C   0  0  1  0  0  3  0  0  0  0  0  0
    4.8570   48.7150   61.9540 O   0  0  0  0  0  0  0  0  0  0  0  0
    5.3930   49.4820   61.7010 H   0  0  0  0  0  0  0  0  0  0  0  0
    4.5940   51.7020   60.0080 C   0  0  0  0  0  2  0  0  0  0  0  0
    5.7870   50.9450   59.8900 O   0  0  0  0  0  0  0  0  0  0  0  0
    6.0390   50.6740   60.7900 H   0  0  0  0  0  0  0  0  0  0  0  0
   -0.4320   50.5440   66.9610 O   0  0  0  0  0  0  0  0  0  0  0  0
   -1.7220   48.5160   67.7200 C   0  0  1  0  0  3  0  0  0  0  0  0
   -0.5920   49.5810   68.1140 C   0  0  1  0  0  3  0  0  0  0  0  0
    0.6270   48.8540   68.4190 O   0  0  0  0  0  0  0  0  0  0  0  0
    0.5180   47.6830   69.2910 C   0  0  1  0  0  3  0  0  0  0  0  0
   -0.4350   46.6100   68.7380 C   0  0  2  0  0  3  0  0  0  0  0  0
   -1.8130   47.2280   68.6050 C   0  0  1  0  0  3  0  0  0  0  0  0
   -5.2370   49.9740   67.8360 C   0  0  0  0  0  1  0  0  0  0  0  0
   -3.8370   49.7190   68.3430 C   0  0  0  0  0  0  0  0  0  0  0  0
   -3.4340   50.0550   69.4510 O   0  0  0  0  0  0  0  0  0  0  0  0
   -3.0550   49.0490   67.4360 N   0  0  0  0  0  0  0  0  0  0  0  0
   -3.4950   48.7240   66.5810 H   0  0  0  0  0  0  0  0  0  0  0  0
   -2.3360   47.3440   69.9410 O   0  0  0  0  0  0  0  0  0  0  0  0
   -2.0100   46.6090   70.4960 H   0  0  0  0  0  0  0  0  0  0  0  0
   -0.5100   45.4540   69.5940 O   0  0  0  0  0  0  0  0  0  0  0  0
   -0.6850   44.6790   69.0200 H   0  0  0  0  0  0  0  0  0  0  0  0
    1.9040   47.0150   69.4680 C   0  0  0  0  0  2  0  0  0  0  0  0
    2.1190   45.9550   68.5360 O   0  0  0  0  0  0  0  0  0  0  0  0
    1.2910   45.4580   68.4550 H   0  0  0  0  0  0  0  0  0  0  0  0
  1 34  1  1  0  0  0
  2 12  1  1  0  0  0
  2  1  1  0  0  0  0
  3  7  1  6  0  0  0
  3  2  1  0  0  0  0
  4 17  1  6  0  0  0
  4  3  1  0  0  0  0
  4  5  1  0  0  0  0
  5  6  1  0  0  0  0
  6  1  1  0  0  0  0
  6 14  1  1  0  0  0
  7 11  1  0  0  0  0
  8  7  1  0  0  0  0
  9  8  1  0  0  0  0
 10  8  2  0  0  0  0
 12 13  1  0  0  0  0
 15 14  1  0  0  0  0
 16 15  1  0  0  0  0
 18 17  1  6  0  0  0
 19 31  1  1  0  0  0
 19 18  1  0  0  0  0
 20 21  1  6  0  0  0
 20 27  1  0  0  0  0
 20 19  1  0  0  0  0
 21 22  1  0  0  0  0
 22 26  2  0  0  0  0
 23 24  1  0  0  0  0
 23 22  1  0  0  0  0
 25 23  1  0  0  0  0
 27 26  1  6  0  0  0
 27 28  1  0  0  0  0
 28 18  1  0  0  0  0
 28 29  1  6  0  0  0
 30 29  1  0  0  0  0
 32 31  1  0  0  0  0
 32 33  1  0  0  0  0
 35 44  1  1  0  0  0
 35 36  1  0  0  0  0
 35 40  1  0  0  0  0
 36 34  1  6  0  0  0
 36 37  1  0  0  0  0
 37 38  1  0  0  0  0
 38 50  1  6  0  0  0
 39 38  1  0  0  0  0
 39 48  1  1  0  0  0
 40 39  1  0  0  0  0
 40 46  1  1  0  0  0
 41 42  1  0  0  0  0
 42 43  2  0  0  0  0
 44 42  1  0  0  0  0
 45 44  1  0  0  0  0
 46 47  1  0  0  0  0
 49 48  1  0  0  0  0
 51 50  1  0  0  0  0
 52 51  1  0  0  0  0
M  END
>  <MODEL>
3

>  <REMARK>
 VINA RESULT:      -7.4      3.764      8.120
  Name = CHEMBL1230997-40
  20 active torsions:
  status: ('A' for Active; 'I' for Inactive)
    1  A    between atoms: C_1  and  C_2
    2  A    between atoms: N_4  and  C_5
    3  A    between atoms: C_6  and  O_7
    4  A    between atoms: O_7  and  C_8
    5  A    between atoms: C_9  and  O_10
    6  A    between atoms: C_11  and  N_12
    7  A    between atoms: C_13  and  C_14
    8  A    between atoms: C_16  and  O_17
    9  A    between atoms: O_17  and  C_18
   10  A    between atoms: C_19  and  C_20
   11  A    between atoms: C_20  and  O_21
   12  A    between atoms: N_25  and  C_26
   13  A    between atoms: N_25  and  C_27
   14  A    between atoms: C_30  and  O_31
   15  A    between atoms: C_33  and  C_34
   16  A    between atoms: C_34  and  O_35
   17  A    between atoms: C_37  and  C_38
   18  A    between atoms: C_38  and  O_39
   19  A    between atoms: C_40  and  O_41
   20  A    between atoms: C_42  and  O_43
                            x       y       z     vdW  Elec       q    Type
                         _______ _______ _______ _____ _____    ______ ____

>  <TORSDO>
F 16

>  <rfscore_v2>
6.083151849927843

>  <vina_affinity>
-7.238829713601198

>  <vina_gauss1>
94.28553833108899

>  <vina_gauss2>
1720.0517171426977

>  <vina_repulsion>
3.4158683881153182

>  <vina_hydrophobic>
6.358446993572605

>  <vina_hydrogen>
4.658610058004464

>  <vina_intra_gauss1>
64.44506536084927

>  <vina_intra_gauss2>
590.7803829205975

>  <vina_intra_repulsion>
2.77795710458037

>  <vina_intra_hydrophobic>
0.0

>  <vina_intra_hydrogen>
3.36788811704407

>  <vina_num_rotors>
12.0

>  <rfscore_v3>
5.723913518093017

>  <PLEClinear_p5_l1_s65536>
5.10814710818028

>  <nnscore>
4.916475367193731

$$$$
CHEMBL1230997-40
 OpenBabel12202021063D

 52 55  0  0  1  0  0  0  0  0999 V2000
   -1.1310   49.7830   66.2590 C   0  0  1  0  0  3  0  0  0  0  0  0
   -2.3330   50.5460   65.5740 C   0  0  2  0  0  3  0  0  0  0  0  0
   -2.5550   50.1450   64.0420 C   0  0  2  0  0  3  0  0  0  0  0  0
   -1.2420   50.4320   63.2610 C   0  0  1  0  0  3  0  0  0  0  0  0
   -0.3120   49.5290   63.8480 O   0  0  0  0  0  0  0  0  0  0  0  0
    0.0840   49.9370   65.1990 C   0  0  2  0  0  3  0  0  0  0  0  0
   -3.7890   50.7030   63.4720 N   0  0  0  0  0  0  0  0  0  0  0  0
   -5.0310   50.1640   63.6720 C   0  0  0  0  0  0  0  0  0  0  0  0
   -6.1550   50.9070   62.9980 C   0  0  0  0  0  1  0  0  0  0  0  0
   -5.2070   49.1510   64.3400 O   0  0  0  0  0  0  0  0  0  0  0  0
   -3.6930   51.4330   62.7750 H   0  0  0  0  0  0  0  0  0  0  0  0
   -2.0630   51.9530   65.7240 O   0  0  0  0  0  0  0  0  0  0  0  0
   -2.8870   52.4400   65.9290 H   0  0  0  0  0  0  0  0  0  0  0  0
    1.3820   49.1250   65.3060 C   0  0  0  0  0  2  0  0  0  0  0  0
    1.1040   47.9270   66.0810 O   0  0  0  0  0  0  0  0  0  0  0  0
    0.7530   48.2450   66.9470 H   0  0  0  0  0  0  0  0  0  0  0  0
   -1.0820   50.4180   61.8400 O   0  0  0  0  0  0  0  0  0  0  0  0
   -0.7710   51.5380   61.0240 C   0  0  2  0  0  3  0  0  0  0  0  0
   -0.1460   51.1640   59.6620 C   0  0  2  0  0  3  0  0  0  0  0  0
    1.3770   51.3630   59.7700 C   0  0  2  0  0  3  0  0  0  0  0  0
    2.0740   50.1230   59.7690 O   0  0  0  0  0  0  0  0  0  0  0  0
    2.5920   49.9840   61.0160 C   0  0  0  0  0  0  0  0  0  0  0  0
    3.3120   48.8380   61.2120 N   0  0  0  0  0  0  0  0  0  0  0  0
    3.9930   48.5960   62.4680 C   0  0  0  0  0  1  0  0  0  0  0  0
    3.3190   47.7390   60.2580 C   0  0  0  0  0  1  0  0  0  0  0  0
    2.4050   50.9370   61.8700 N   0  0  0  0  0  0  0  0  0  0  0  0
    1.6860   51.9800   61.1110 C   0  0  2  0  0  3  0  0  0  0  0  0
    0.3420   52.3570   61.7440 C   0  0  1  0  0  3  0  0  0  0  0  0
    0.1310   53.7700   61.6070 O   0  0  0  0  0  0  0  0  0  0  0  0
    0.2070   54.0250   60.6750 H   0  0  0  0  0  0  0  0  0  0  0  0
   -0.6760   52.0860   58.5590 C   0  0  0  0  0  2  0  0  0  0  0  0
    0.0680   53.2920   58.5230 O   0  0  0  0  0  0  0  0  0  0  0  0
    0.9430   53.0730   58.1580 H   0  0  0  0  0  0  0  0  0  0  0  0
   -0.8250   50.2880   67.6290 O   0  0  0  0  0  0  0  0  0  0  0  0
   -1.8900   48.3420   68.8250 C   0  0  1  0  0  3  0  0  0  0  0  0
   -0.6630   49.3730   68.8190 C   0  0  1  0  0  3  0  0  0  0  0  0
    0.5690   48.6060   68.7830 O   0  0  0  0  0  0  0  0  0  0  0  0
    0.6900   47.4720   69.7000 C   0  0  1  0  0  3  0  0  0  0  0  0
   -0.4150   46.4210   69.5030 C   0  0  2  0  0  3  0  0  0  0  0  0
   -1.7520   47.0900   69.7550 C   0  0  1  0  0  3  0  0  0  0  0  0
   -5.4710   49.5180   68.2930 C   0  0  0  0  0  1  0  0  0  0  0  0
   -4.2700   48.6280   68.0770 C   0  0  0  0  0  0  0  0  0  0  0  0
   -4.2100   47.7480   67.2270 O   0  0  0  0  0  0  0  0  0  0  0  0
   -3.2320   48.9200   68.9240 N   0  0  0  0  0  0  0  0  0  0  0  0
   -3.3290   49.7260   69.5320 H   0  0  0  0  0  0  0  0  0  0  0  0
   -1.8510   47.2730   71.1790 O   0  0  0  0  0  0  0  0  0  0  0  0
   -2.7880   47.2660   71.4560 H   0  0  0  0  0  0  0  0  0  0  0  0
   -0.2660   45.2980   70.3930 O   0  0  0  0  0  0  0  0  0  0  0  0
    0.6870   45.2210   70.6060 H   0  0  0  0  0  0  0  0  0  0  0  0
    2.0460   46.7530   69.4890 C   0  0  0  0  0  2  0  0  0  0  0  0
    2.0190   45.8590   68.3770 O   0  0  0  0  0  0  0  0  0  0  0  0
    2.9070   45.4850   68.2740 H   0  0  0  0  0  0  0  0  0  0  0  0
  1 34  1  1  0  0  0
  2 12  1  6  0  0  0
  2  1  1  0  0  0  0
  3  7  1  6  0  0  0
  3  2  1  0  0  0  0
  4 17  1  6  0  0  0
  4  5  1  0  0  0  0
  4  3  1  0  0  0  0
  5  6  1  0  0  0  0
  6 14  1  1  0  0  0
  6  1  1  0  0  0  0
  7  8  1  0  0  0  0
  8 10  2  0  0  0  0
  9  8  1  0  0  0  0
 11  7  1  0  0  0  0
 12 13  1  0  0  0  0
 14 15  1  0  0  0  0
 15 16  1  0  0  0  0
 18 28  1  0  0  0  0
 18 17  1  1  0  0  0
 19 31  1  6  0  0  0
 19 20  1  0  0  0  0
 19 18  1  0  0  0  0
 20 21  1  1  0  0  0
 20 27  1  0  0  0  0
 21 22  1  0  0  0  0
 22 23  1  0  0  0  0
 22 26  2  0  0  0  0
 23 24  1  0  0  0  0
 25 23  1  0  0  0  0
 27 28  1  0  0  0  0
 27 26  1  1  0  0  0
 28 29  1  6  0  0  0
 30 29  1  0  0  0  0
 32 31  1  0  0  0  0
 33 32  1  0  0  0  0
 35 44  1  1  0  0  0
 35 40  1  0  0  0  0
 36 34  1  6  0  0  0
 36 35  1  0  0  0  0
 37 36  1  0  0  0  0
 37 38  1  0  0  0  0
 38 50  1  6  0  0  0
 39 38  1  0  0  0  0
 39 40  1  0  0  0  0
 39 48  1  1  0  0  0
 40 46  1  1  0  0  0
 42 41  1  0  0  0  0
 42 44  1  0  0  0  0
 43 42  2  0  0  0  0
 44 45  1  0  0  0  0
 46 47  1  0  0  0  0
 48 49  1  0  0  0  0
 51 50  1  0  0  0  0
 52 51  1  0  0  0  0
M  END
>  <MODEL>
4

>  <REMARK>
 VINA RESULT:      -7.4      2.931      6.910
  Name = CHEMBL1230997-40
  20 active torsions:
  status: ('A' for Active; 'I' for Inactive)
    1  A    between atoms: C_1  and  C_2
    2  A    between atoms: N_4  and  C_5
    3  A    between atoms: C_6  and  O_7
    4  A    between atoms: O_7  and  C_8
    5  A    between atoms: C_9  and  O_10
    6  A    between atoms: C_11  and  N_12
    7  A    between atoms: C_13  and  C_14
    8  A    between atoms: C_16  and  O_17
    9  A    between atoms: O_17  and  C_18
   10  A    between atoms: C_19  and  C_20
   11  A    between atoms: C_20  and  O_21
   12  A    between atoms: N_25  and  C_26
   13  A    between atoms: N_25  and  C_27
   14  A    between atoms: C_30  and  O_31
   15  A    between atoms: C_33  and  C_34
   16  A    between atoms: C_34  and  O_35
   17  A    between atoms: C_37  and  C_38
   18  A    between atoms: C_38  and  O_39
   19  A    between atoms: C_40  and  O_41
   20  A    between atoms: C_42  and  O_43
                            x       y       z     vdW  Elec       q    Type
                         _______ _______ _______ _____ _____    ______ ____

>  <TORSDO>
F 16

>  <rfscore_v2>
6.370744878565876

>  <vina_affinity>
-6.139712820787563

>  <vina_gauss1>
85.17394928037685

>  <vina_gauss2>
1764.0937789719633

>  <vina_repulsion>
4.44400067180518

>  <vina_hydrophobic>
3.22322282321932

>  <vina_hydrogen>
3.2959117041312425

>  <vina_intra_gauss1>
90.82994639383077

>  <vina_intra_gauss2>
574.6787764275248

>  <vina_intra_repulsion>
1.4843780484001687

>  <vina_intra_hydrophobic>
0.0

>  <vina_intra_hydrogen>
3.7730544517928912

>  <vina_num_rotors>
12.0

>  <rfscore_v3>
5.789883620546116

>  <PLEClinear_p5_l1_s65536>
4.739884951365873

>  <nnscore>
4.833315397621989

$$$$
CHEMBL1230997-40
 OpenBabel12202021063D

 52 55  0  0  1  0  0  0  0  0999 V2000
   -0.6600   48.7770   64.3710 C   0  0  1  0  0  3  0  0  0  0  0  0
   -1.0520   50.1910   63.7840 C   0  0  2  0  0  3  0  0  0  0  0  0
   -0.2240   50.5920   62.4760 C   0  0  2  0  0  3  0  0  0  0  0  0
    1.2900   50.5720   62.8240 C   0  0  1  0  0  3  0  0  0  0  0  0
    1.5350   49.2040   63.1270 O   0  0  0  0  0  0  0  0  0  0  0  0
    0.9590   48.8070   64.4150 C   0  0  2  0  0  3  0  0  0  0  0  0
   -0.7290   51.8080   61.8240 N   0  0  0  0  0  0  0  0  0  0  0  0
   -0.5250   53.0710   62.3090 C   0  0  0  0  0  0  0  0  0  0  0  0
   -1.1260   54.1710   61.4730 C   0  0  0  0  0  1  0  0  0  0  0  0
    0.0940   53.2850   63.3460 O   0  0  0  0  0  0  0  0  0  0  0  0
   -1.3890   51.6900   61.0640 H   0  0  0  0  0  0  0  0  0  0  0  0
   -0.8600   51.1420   64.8500 O   0  0  0  0  0  0  0  0  0  0  0  0
    0.0780   51.4130   64.9020 H   0  0  0  0  0  0  0  0  0  0  0  0
    1.8030   47.5480   64.6590 C   0  0  0  0  0  2  0  0  0  0  0  0
    1.5120   47.0610   65.9980 O   0  0  0  0  0  0  0  0  0  0  0  0
    2.3560   46.6690   66.3280 H   0  0  0  0  0  0  0  0  0  0  0  0
    2.3520   51.0730   62.0070 O   0  0  0  0  0  0  0  0  0  0  0  0
    3.1700   50.3030   61.1380 C   0  0  2  0  0  3  0  0  0  0  0  0
    4.2810   51.1190   60.4410 C   0  0  2  0  0  3  0  0  0  0  0  0
    3.8070   51.4370   59.0100 C   0  0  2  0  0  3  0  0  0  0  0  0
    3.5030   52.8170   58.8480 O   0  0  0  0  0  0  0  0  0  0  0  0
    2.1580   52.8860   58.6840 C   0  0  0  0  0  0  0  0  0  0  0  0
    1.6670   54.1500   58.5050 N   0  0  0  0  0  0  0  0  0  0  0  0
    0.2610   54.3680   58.2340 C   0  0  0  0  0  1  0  0  0  0  0  0
    2.4700   55.3450   58.7220 C   0  0  0  0  0  1  0  0  0  0  0  0
    1.4820   51.7840   58.6640 N   0  0  0  0  0  0  0  0  0  0  0  0
    2.5020   50.7210   58.7690 C   0  0  2  0  0  3  0  0  0  0  0  0
    2.2770   49.7940   59.9680 C   0  0  1  0  0  3  0  0  0  0  0  0
    2.6070   48.4470   59.5980 O   0  0  0  0  0  0  0  0  0  0  0  0
    2.4920   47.8600   60.3610 H   0  0  0  0  0  0  0  0  0  0  0  0
    5.5720   50.2970   60.3500 C   0  0  0  0  0  2  0  0  0  0  0  0
    6.7040   51.1500   60.3930 O   0  0  0  0  0  0  0  0  0  0  0  0
    6.4490   51.9790   59.9500 H   0  0  0  0  0  0  0  0  0  0  0  0
   -1.3100   48.4900   65.6820 O   0  0  0  0  0  0  0  0  0  0  0  0
   -2.2810   49.7850   67.6140 C   0  0  1  0  0  3  0  0  0  0  0  0
   -0.9370   49.2140   66.9540 C   0  0  1  0  0  3  0  0  0  0  0  0
   -0.2870   48.3550   67.9280 O   0  0  0  0  0  0  0  0  0  0  0  0
   -0.1670   48.8530   69.2980 C   0  0  1  0  0  3  0  0  0  0  0  0
   -1.5250   49.1880   69.9370 C   0  0  2  0  0  3  0  0  0  0  0  0
   -2.1850   50.2660   69.1000 C   0  0  1  0  0  3  0  0  0  0  0  0
   -4.6390   51.5290   65.1860 C   0  0  0  0  0  1  0  0  0  0  0  0
   -4.1660   50.4000   66.0710 C   0  0  0  0  0  0  0  0  0  0  0  0
   -4.6950   49.2970   66.1220 O   0  0  0  0  0  0  0  0  0  0  0  0
   -3.0570   50.7310   66.8090 N   0  0  0  0  0  0  0  0  0  0  0  0
   -2.6240   51.6320   66.6350 H   0  0  0  0  0  0  0  0  0  0  0  0
   -1.4820   51.4890   69.3870 O   0  0  0  0  0  0  0  0  0  0  0  0
   -2.0910   52.1460   69.7750 H   0  0  0  0  0  0  0  0  0  0  0  0
   -1.3910   49.6500   71.2950 O   0  0  0  0  0  0  0  0  0  0  0  0
   -0.7780   49.0370   71.7510 H   0  0  0  0  0  0  0  0  0  0  0  0
    0.5110   47.7900   70.1980 C   0  0  0  0  0  2  0  0  0  0  0  0
    0.9620   48.3360   71.4380 O   0  0  0  0  0  0  0  0  0  0  0  0
    0.8320   49.2950   71.4060 H   0  0  0  0  0  0  0  0  0  0  0  0
  1  6  1  0  0  0  0
  1 34  1  1  0  0  0
  2  1  1  0  0  0  0
  2 12  1  1  0  0  0
  3  7  1  1  0  0  0
  3  4  1  0  0  0  0
  3  2  1  0  0  0  0
  4 17  1  6  0  0  0
  4  5  1  0  0  0  0
  5  6  1  0  0  0  0
  6 14  1  6  0  0  0
  7  8  1  0  0  0  0
  8 10  2  0  0  0  0
  9  8  1  0  0  0  0
 11  7  1  0  0  0  0
 12 13  1  0  0  0  0
 14 15  1  0  0  0  0
 15 16  1  0  0  0  0
 18 17  1  1  0  0  0
 19 31  1  6  0  0  0
 19 18  1  0  0  0  0
 20 21  1  1  0  0  0
 20 19  1  0  0  0  0
 22 21  1  0  0  0  0
 23 22  1  0  0  0  0
 23 25  1  0  0  0  0
 24 23  1  0  0  0  0
 26 22  2  0  0  0  0
 27 26  1  1  0  0  0
 27 20  1  0  0  0  0
 27 28  1  0  0  0  0
 28 29  1  6  0  0  0
 28 18  1  0  0  0  0
 29 30  1  0  0  0  0
 31 32  1  0  0  0  0
 33 32  1  0  0  0  0
 35 44  1  6  0  0  0
 35 40  1  0  0  0  0
 36 34  1  6  0  0  0
 36 35  1  0  0  0  0
 36 37  1  0  0  0  0
 37 38  1  0  0  0  0
 38 39  1  0  0  0  0
 38 50  1  1  0  0  0
 39 48  1  1  0  0  0
 40 46  1  6  0  0  0
 40 39  1  0  0  0  0
 41 42  1  0  0  0  0
 42 43  2  0  0  0  0
 42 44  1  0  0  0  0
 45 44  1  0  0  0  0
 46 47  1  0  0  0  0
 48 49  1  0  0  0  0
 50 51  1  0  0  0  0
 52 51  1  0  0  0  0
M  END
>  <MODEL>
5

>  <REMARK>
 VINA RESULT:      -7.3      3.982      8.605
  Name = CHEMBL1230997-40
  20 active torsions:
  status: ('A' for Active; 'I' for Inactive)
    1  A    between atoms: C_1  and  C_2
    2  A    between atoms: N_4  and  C_5
    3  A    between atoms: C_6  and  O_7
    4  A    between atoms: O_7  and  C_8
    5  A    between atoms: C_9  and  O_10
    6  A    between atoms: C_11  and  N_12
    7  A    between atoms: C_13  and  C_14
    8  A    between atoms: C_16  and  O_17
    9  A    between atoms: O_17  and  C_18
   10  A    between atoms: C_19  and  C_20
   11  A    between atoms: C_20  and  O_21
   12  A    between atoms: N_25  and  C_26
   13  A    between atoms: N_25  and  C_27
   14  A    between atoms: C_30  and  O_31
   15  A    between atoms: C_33  and  C_34
   16  A    between atoms: C_34  and  O_35
   17  A    between atoms: C_37  and  C_38
   18  A    between atoms: C_38  and  O_39
   19  A    between atoms: C_40  and  O_41
   20  A    between atoms: C_42  and  O_43
                            x       y       z     vdW  Elec       q    Type
                         _______ _______ _______ _____ _____    ______ ____

>  <TORSDO>
F 16

>  <rfscore_v2>
6.039315302752799

>  <vina_affinity>
-7.817099872729285

>  <vina_gauss1>
109.57174575781136

>  <vina_gauss2>
1714.9595147555115

>  <vina_repulsion>
3.3919929803704716

>  <vina_hydrophobic>
11.82852158446365

>  <vina_hydrogen>
5.091740603347945

>  <vina_intra_gauss1>
78.62396910851184

>  <vina_intra_gauss2>
573.1362470164769

>  <vina_intra_repulsion>
5.70912197865392

>  <vina_intra_hydrophobic>
0.0

>  <vina_intra_hydrogen>
7.210872042127561

>  <vina_num_rotors>
12.0

>  <rfscore_v3>
5.72678771794872

>  <PLEClinear_p5_l1_s65536>
5.5961552341900775

>  <nnscore>
5.247044672474376

$$$$
CHEMBL1230997-40
 OpenBabel12202021063D

 52 55  0  0  1  0  0  0  0  0999 V2000
   -0.5360   50.3850   67.7260 C   0  0  1  0  0  3  0  0  0  0  0  0
   -0.1750   50.1190   66.2110 C   0  0  2  0  0  3  0  0  0  0  0  0
   -0.9550   51.0730   65.1910 C   0  0  2  0  0  3  0  0  0  0  0  0
   -2.4820   50.8830   65.4060 C   0  0  1  0  0  3  0  0  0  0  0  0
   -2.6840   51.3570   66.7320 O   0  0  0  0  0  0  0  0  0  0  0  0
   -2.1550   50.4340   67.7400 C   0  0  2  0  0  3  0  0  0  0  0  0
   -0.4700   50.9590   63.8090 N   0  0  0  0  0  0  0  0  0  0  0  0
   -0.0100   52.0170   63.0740 C   0  0  0  0  0  0  0  0  0  0  0  0
    0.4450   51.6650   61.6820 C   0  0  0  0  0  1  0  0  0  0  0  0
    0.0210   53.1600   63.5170 O   0  0  0  0  0  0  0  0  0  0  0  0
   -0.6290   50.0800   63.3310 H   0  0  0  0  0  0  0  0  0  0  0  0
   -0.4570   48.7280   65.9620 O   0  0  0  0  0  0  0  0  0  0  0  0
   -0.0630   48.4450   65.1130 H   0  0  0  0  0  0  0  0  0  0  0  0
   -2.9560   50.9390   68.9480 C   0  0  0  0  0  2  0  0  0  0  0  0
   -3.4870   49.7840   69.6540 O   0  0  0  0  0  0  0  0  0  0  0  0
   -3.6060   50.0740   70.5900 H   0  0  0  0  0  0  0  0  0  0  0  0
   -3.5230   51.3820   64.5620 O   0  0  0  0  0  0  0  0  0  0  0  0
   -3.7960   50.9590   63.2340 C   0  0  2  0  0  3  0  0  0  0  0  0
   -5.1850   51.3900   62.7130 C   0  0  2  0  0  3  0  0  0  0  0  0
   -6.1310   50.1810   62.8330 C   0  0  2  0  0  3  0  0  0  0  0  0
   -7.1030   50.3690   63.8540 O   0  0  0  0  0  0  0  0  0  0  0  0
   -6.7930   49.4830   64.8350 C   0  0  0  0  0  0  0  0  0  0  0  0
   -7.6290   49.5090   65.9150 N   0  0  0  0  0  0  0  0  0  0  0  0
   -7.4700   48.5620   67.0000 C   0  0  0  0  0  1  0  0  0  0  0  0
   -8.6170   50.5580   66.1230 C   0  0  0  0  0  1  0  0  0  0  0  0
   -5.7920   48.6840   64.6490 N   0  0  0  0  0  0  0  0  0  0  0  0
   -5.3260   48.9860   63.2800 C   0  0  2  0  0  3  0  0  0  0  0  0
   -3.8520   49.4030   63.2320 C   0  0  1  0  0  3  0  0  0  0  0  0
   -3.2400   48.8530   62.0550 O   0  0  0  0  0  0  0  0  0  0  0  0
   -3.4690   47.9150   61.9740 H   0  0  0  0  0  0  0  0  0  0  0  0
   -5.1020   51.7930   61.2370 C   0  0  0  0  0  2  0  0  0  0  0  0
   -5.9200   52.9240   60.9880 O   0  0  0  0  0  0  0  0  0  0  0  0
   -5.8920   53.4740   61.7900 H   0  0  0  0  0  0  0  0  0  0  0  0
    0.0610   49.3810   68.6520 O   0  0  0  0  0  0  0  0  0  0  0  0
   -0.4680   47.5450   70.2960 C   0  0  1  0  0  3  0  0  0  0  0  0
   -0.4410   47.9590   68.7490 C   0  0  1  0  0  3  0  0  0  0  0  0
   -1.7800   47.7920   68.2140 O   0  0  0  0  0  0  0  0  0  0  0  0
   -2.4880   46.5520   68.5330 C   0  0  1  0  0  3  0  0  0  0  0  0
   -2.6540   46.3270   70.0460 C   0  0  2  0  0  3  0  0  0  0  0  0
   -1.2720   46.2530   70.6640 C   0  0  1  0  0  3  0  0  0  0  0  0
    3.0730   47.0230   71.5950 C   0  0  0  0  0  1  0  0  0  0  0  0
    1.9680   46.9940   70.5650 C   0  0  0  0  0  0  0  0  0  0  0  0
    2.0750   46.4850   69.4550 O   0  0  0  0  0  0  0  0  0  0  0  0
    0.8110   47.5830   71.0080 N   0  0  0  0  0  0  0  0  0  0  0  0
    0.7780   47.8930   71.9740 H   0  0  0  0  0  0  0  0  0  0  0  0
   -0.7300   44.9730   70.2930 O   0  0  0  0  0  0  0  0  0  0  0  0
   -1.2980   44.2540   70.6320 H   0  0  0  0  0  0  0  0  0  0  0  0
   -3.3770   45.1170   70.3420 O   0  0  0  0  0  0  0  0  0  0  0  0
   -2.9670   44.3980   69.8170 H   0  0  0  0  0  0  0  0  0  0  0  0
   -3.9100   46.5710   67.9170 C   0  0  0  0  0  2  0  0  0  0  0  0
   -4.8690   47.1740   68.7850 O   0  0  0  0  0  0  0  0  0  0  0  0
   -4.4070   47.4590   69.5870 H   0  0  0  0  0  0  0  0  0  0  0  0
  1  6  1  0  0  0  0
  1 34  1  1  0  0  0
  2 12  1  6  0  0  0
  2  1  1  0  0  0  0
  3  7  1  6  0  0  0
  3  4  1  0  0  0  0
  3  2  1  0  0  0  0
  4 17  1  6  0  0  0
  4  5  1  0  0  0  0
  5  6  1  0  0  0  0
  6 14  1  1  0  0  0
  8 10  2  0  0  0  0
  8  7  1  0  0  0  0
  9  8  1  0  0  0  0
 11  7  1  0  0  0  0
 13 12  1  0  0  0  0
 14 15  1  0  0  0  0
 15 16  1  0  0  0  0
 18 17  1  1  0  0  0
 19 31  1  6  0  0  0
 19 20  1  0  0  0  0
 19 18  1  0  0  0  0
 20 27  1  0  0  0  0
 20 21  1  1  0  0  0
 21 22  1  0  0  0  0
 22 23  1  0  0  0  0
 23 25  1  0  0  0  0
 23 24  1  0  0  0  0
 26 22  2  0  0  0  0
 27 26  1  1  0  0  0
 28 29  1  6  0  0  0
 28 18  1  0  0  0  0
 28 27  1  0  0  0  0
 30 29  1  0  0  0  0
 32 31  1  0  0  0  0
 32 33  1  0  0  0  0
 35 40  1  0  0  0  0
 35 44  1  6  0  0  0
 36 34  1  1  0  0  0
 36 35  1  0  0  0  0
 37 38  1  0  0  0  0
 37 36  1  0  0  0  0
 38 50  1  6  0  0  0
 38 39  1  0  0  0  0
 39 48  1  6  0  0  0
 39 40  1  0  0  0  0
 40 46  1  6  0  0  0
 42 44  1  0  0  0  0
 42 41  1  0  0  0  0
 43 42  2  0  0  0  0
 44 45  1  0  0  0  0
 46 47  1  0  0  0  0
 49 48  1  0  0  0  0
 50 51  1  0  0  0  0
 51 52  1  0  0  0  0
M  END
>  <MODEL>
6

>  <REMARK>
 VINA RESULT:      -7.3      2.233      4.277
  Name = CHEMBL1230997-40
  20 active torsions:
  status: ('A' for Active; 'I' for Inactive)
    1  A    between atoms: C_1  and  C_2
    2  A    between atoms: N_4  and  C_5
    3  A    between atoms: C_6  and  O_7
    4  A    between atoms: O_7  and  C_8
    5  A    between atoms: C_9  and  O_10
    6  A    between atoms: C_11  and  N_12
    7  A    between atoms: C_13  and  C_14
    8  A    between atoms: C_16  and  O_17
    9  A    between atoms: O_17  and  C_18
   10  A    between atoms: C_19  and  C_20
   11  A    between atoms: C_20  and  O_21
   12  A    between atoms: N_25  and  C_26
   13  A    between atoms: N_25  and  C_27
   14  A    between atoms: C_30  and  O_31
   15  A    between atoms: C_33  and  C_34
   16  A    between atoms: C_34  and  O_35
   17  A    between atoms: C_37  and  C_38
   18  A    between atoms: C_38  and  O_39
   19  A    between atoms: C_40  and  O_41
   20  A    between atoms: C_42  and  O_43
                            x       y       z     vdW  Elec       q    Type
                         _______ _______ _______ _____ _____    ______ ____

>  <TORSDO>
F 16

>  <rfscore_v2>
6.252437722166722

>  <vina_affinity>
-7.308773388252711

>  <vina_gauss1>
91.01853796004283

>  <vina_gauss2>
1882.5605715787246

>  <vina_repulsion>
3.8659979569550167

>  <vina_hydrophobic>
9.903035863502865

>  <vina_hydrogen>
4.063205334098188

>  <vina_intra_gauss1>
82.0695021586786

>  <vina_intra_gauss2>
663.4729068981469

>  <vina_intra_repulsion>
5.470446085466373

>  <vina_intra_hydrophobic>
0.0

>  <vina_intra_hydrogen>
5.369443153950044

>  <vina_num_rotors>
12.0

>  <rfscore_v3>
6.006171268065273

>  <PLEClinear_p5_l1_s65536>
5.39921702692611

>  <nnscore>
6.02625351824083

$$$$
CHEMBL1230997-40
 OpenBabel12202021063D

 52 55  0  0  1  0  0  0  0  0999 V2000
    0.4120   49.9370   65.3890 C   0  0  1  0  0  3  0  0  0  0  0  0
    1.1010   48.7600   64.5910 C   0  0  2  0  0  3  0  0  0  0  0  0
    2.2350   49.2530   63.5760 C   0  0  2  0  0  3  0  0  0  0  0  0
    1.6000   50.2610   62.5770 C   0  0  1  0  0  3  0  0  0  0  0  0
    1.2190   51.3480   63.4120 O   0  0  0  0  0  0  0  0  0  0  0  0
    0.0560   51.0290   64.2470 C   0  0  2  0  0  3  0  0  0  0  0  0
    3.0030   48.1480   62.9890 N   0  0  0  0  0  0  0  0  0  0  0  0
    3.0040   46.8730   63.4870 C   0  0  0  0  0  0  0  0  0  0  0  0
    3.8590   45.8990   62.7190 C   0  0  0  0  0  1  0  0  0  0  0  0
    2.3620   46.5570   64.4830 O   0  0  0  0  0  0  0  0  0  0  0  0
    3.6830   48.3800   62.2740 H   0  0  0  0  0  0  0  0  0  0  0  0
    0.0440   48.0560   63.9100 O   0  0  0  0  0  0  0  0  0  0  0  0
    0.1380   47.0910   64.0370 H   0  0  0  0  0  0  0  0  0  0  0  0
   -0.3800   52.4630   64.5800 C   0  0  0  0  0  2  0  0  0  0  0  0
   -0.5160   52.5700   66.0240 O   0  0  0  0  0  0  0  0  0  0  0  0
    0.3130   53.0030   66.3390 H   0  0  0  0  0  0  0  0  0  0  0  0
    2.2080   50.7690   61.3870 O   0  0  0  0  0  0  0  0  0  0  0  0
    3.2380   50.1370   60.6410 C   0  0  2  0  0  3  0  0  0  0  0  0
    4.3960   51.0800   60.2500 C   0  0  2  0  0  3  0  0  0  0  0  0
    4.1870   51.5050   58.7850 C   0  0  2  0  0  3  0  0  0  0  0  0
    3.8130   52.8730   58.6780 O   0  0  0  0  0  0  0  0  0  0  0  0
    2.5250   52.8770   58.2530 C   0  0  0  0  0  0  0  0  0  0  0  0
    1.9810   54.1200   58.0830 N   0  0  0  0  0  0  0  0  0  0  0  0
    0.6420   54.2780   57.5530 C   0  0  0  0  0  1  0  0  0  0  0  0
    2.6310   55.3350   58.5530 C   0  0  0  0  0  1  0  0  0  0  0  0
    1.9530   51.7420   58.0080 N   0  0  0  0  0  0  0  0  0  0  0  0
    3.0140   50.7380   58.2280 C   0  0  2  0  0  3  0  0  0  0  0  0
    2.6320   49.6890   59.2780 C   0  0  1  0  0  3  0  0  0  0  0  0
    3.1320   48.4060   58.8730 O   0  0  0  0  0  0  0  0  0  0  0  0
    2.4020   47.7710   58.8210 H   0  0  0  0  0  0  0  0  0  0  0  0
    5.7400   50.3510   60.3540 C   0  0  0  0  0  2  0  0  0  0  0  0
    6.8100   51.2810   60.3280 O   0  0  0  0  0  0  0  0  0  0  0  0
    6.4550   52.1080   59.9560 H   0  0  0  0  0  0  0  0  0  0  0  0
   -0.7560   49.4860   66.2000 O   0  0  0  0  0  0  0  0  0  0  0  0
   -1.8480   47.9860   67.9050 C   0  0  1  0  0  3  0  0  0  0  0  0
   -0.6180   48.9700   67.6130 C   0  0  1  0  0  3  0  0  0  0  0  0
    0.6130   48.2310   67.8300 O   0  0  0  0  0  0  0  0  0  0  0  0
    0.7130   47.4240   69.0470 C   0  0  1  0  0  3  0  0  0  0  0  0
   -0.3920   46.3590   69.1540 C   0  0  2  0  0  3  0  0  0  0  0  0
   -1.7300   47.0700   69.1690 C   0  0  1  0  0  3  0  0  0  0  0  0
   -5.1650   49.7790   68.4280 C   0  0  0  0  0  1  0  0  0  0  0  0
   -3.6940   49.5190   68.6480 C   0  0  0  0  0  0  0  0  0  0  0  0
   -3.0150   50.0810   69.4990 O   0  0  0  0  0  0  0  0  0  0  0  0
   -3.1890   48.5640   67.8020 N   0  0  0  0  0  0  0  0  0  0  0  0
   -3.8410   48.0790   67.1940 H   0  0  0  0  0  0  0  0  0  0  0  0
   -1.8550   47.6710   70.4720 O   0  0  0  0  0  0  0  0  0  0  0  0
   -0.9920   47.6680   70.9290 H   0  0  0  0  0  0  0  0  0  0  0  0
   -0.2620   45.5550   70.3420 O   0  0  0  0  0  0  0  0  0  0  0  0
   -0.6020   44.6620   70.1260 H   0  0  0  0  0  0  0  0  0  0  0  0
    2.0700   46.6780   69.0860 C   0  0  0  0  0  2  0  0  0  0  0  0
    2.4350   46.2820   70.4080 O   0  0  0  0  0  0  0  0  0  0  0  0
    2.6330   45.3340   70.3910 H   0  0  0  0  0  0  0  0  0  0  0  0
  1 34  1  6  0  0  0
  2 12  1  6  0  0  0
  2  1  1  0  0  0  0
  3  7  1  6  0  0  0
  3  2  1  0  0  0  0
  4 17  1  6  0  0  0
  4  5  1  0  0  0  0
  4  3  1  0  0  0  0
  5  6  1  0  0  0  0
  6 14  1  1  0  0  0
  6  1  1  0  0  0  0
  7  8  1  0  0  0  0
  8 10  2  0  0  0  0
  9  8  1  0  0  0  0
 11  7  1  0  0  0  0
 12 13  1  0  0  0  0
 14 15  1  0  0  0  0
 15 16  1  0  0  0  0
 18 17  1  1  0  0  0
 19 31  1  6  0  0  0
 19 18  1  0  0  0  0
 20 21  1  1  0  0  0
 20 19  1  0  0  0  0
 22 21  1  0  0  0  0
 23 22  1  0  0  0  0
 23 25  1  0  0  0  0
 24 23  1  0  0  0  0
 26 22  2  0  0  0  0
 27 26  1  1  0  0  0
 27 20  1  0  0  0  0
 27 28  1  0  0  0  0
 28 29  1  6  0  0  0
 28 18  1  0  0  0  0
 30 29  1  0  0  0  0
 32 31  1  0  0  0  0
 33 32  1  0  0  0  0
 35 44  1  1  0  0  0
 35 40  1  0  0  0  0
 36 34  1  6  0  0  0
 36 37  1  0  0  0  0
 36 35  1  0  0  0  0
 37 38  1  0  0  0  0
 38 50  1  6  0  0  0
 38 39  1  0  0  0  0
 39 40  1  0  0  0  0
 39 48  1  1  0  0  0
 40 46  1  1  0  0  0
 41 42  1  0  0  0  0
 42 43  2  0  0  0  0
 44 42  1  0  0  0  0
 45 44  1  0  0  0  0
 46 47  1  0  0  0  0
 49 48  1  0  0  0  0
 50 51  1  0  0  0  0
 52 51  1  0  0  0  0
M  END
>  <MODEL>
7

>  <REMARK>
 VINA RESULT:      -7.2      4.086      9.196
  Name = CHEMBL1230997-40
  20 active torsions:
  status: ('A' for Active; 'I' for Inactive)
    1  A    between atoms: C_1  and  C_2
    2  A    between atoms: N_4  and  C_5
    3  A    between atoms: C_6  and  O_7
    4  A    between atoms: O_7  and  C_8
    5  A    between atoms: C_9  and  O_10
    6  A    between atoms: C_11  and  N_12
    7  A    between atoms: C_13  and  C_14
    8  A    between atoms: C_16  and  O_17
    9  A    between atoms: O_17  and  C_18
   10  A    between atoms: C_19  and  C_20
   11  A    between atoms: C_20  and  O_21
   12  A    between atoms: N_25  and  C_26
   13  A    between atoms: N_25  and  C_27
   14  A    between atoms: C_30  and  O_31
   15  A    between atoms: C_33  and  C_34
   16  A    between atoms: C_34  and  O_35
   17  A    between atoms: C_37  and  C_38
   18  A    between atoms: C_38  and  O_39
   19  A    between atoms: C_40  and  O_41
   20  A    between atoms: C_42  and  O_43
                            x       y       z     vdW  Elec       q    Type
                         _______ _______ _______ _____ _____    ______ ____

>  <TORSDO>
F 16

>  <rfscore_v2>
6.010968688644687

>  <vina_affinity>
-7.391041084012187

>  <vina_gauss1>
124.20100791080627

>  <vina_gauss2>
1837.98020635171

>  <vina_repulsion>
5.234672880705426

>  <vina_hydrophobic>
13.206620749244156

>  <vina_hydrogen>
4.442233407296934

>  <vina_intra_gauss1>
45.5193571939691

>  <vina_intra_gauss2>
559.6298031642216

>  <vina_intra_repulsion>
6.468746106673681

>  <vina_intra_hydrophobic>
0.0

>  <vina_intra_hydrogen>
5.8348614649165995

>  <vina_num_rotors>
12.0

>  <rfscore_v3>
5.778383679431678

>  <PLEClinear_p5_l1_s65536>
6.807959988946936

>  <nnscore>
6.219561635978416

$$$$
CHEMBL1230997-40
 OpenBabel12202021063D

 52 55  0  0  1  0  0  0  0  0999 V2000
   -1.9240   50.1150   65.6140 C   0  0  1  0  0  3  0  0  0  0  0  0
   -0.7070   50.9770   66.1360 C   0  0  2  0  0  3  0  0  0  0  0  0
   -0.5400   52.3740   65.3750 C   0  0  2  0  0  3  0  0  0  0  0  0
   -0.3690   52.0930   63.8560 C   0  0  1  0  0  3  0  0  0  0  0  0
   -1.6150   51.5110   63.4920 O   0  0  0  0  0  0  0  0  0  0  0  0
   -1.7630   50.1450   64.0030 C   0  0  2  0  0  3  0  0  0  0  0  0
    0.4620   53.2520   65.9940 N   0  0  0  0  0  0  0  0  0  0  0  0
    0.3760   53.7180   67.2780 C   0  0  0  0  0  0  0  0  0  0  0  0
    1.5220   54.5980   67.7050 C   0  0  0  0  0  1  0  0  0  0  0  0
   -0.5660   53.4450   68.0140 O   0  0  0  0  0  0  0  0  0  0  0  0
    1.1700   53.6510   65.3890 H   0  0  0  0  0  0  0  0  0  0  0  0
    0.4670   50.1510   65.9980 O   0  0  0  0  0  0  0  0  0  0  0  0
    0.9860   50.1540   66.8270 H   0  0  0  0  0  0  0  0  0  0  0  0
   -2.8710   49.6700   63.0520 C   0  0  0  0  0  2  0  0  0  0  0  0
   -3.0050   48.2290   63.1990 O   0  0  0  0  0  0  0  0  0  0  0  0
   -2.4130   47.9810   63.9480 H   0  0  0  0  0  0  0  0  0  0  0  0
    0.0200   53.0410   62.8590 O   0  0  0  0  0  0  0  0  0  0  0  0
   -0.8440   53.6660   61.9210 C   0  0  2  0  0  3  0  0  0  0  0  0
   -1.3010   52.7370   60.7760 C   0  0  2  0  0  3  0  0  0  0  0  0
   -0.4380   53.0480   59.5390 C   0  0  2  0  0  3  0  0  0  0  0  0
    0.4700   51.9930   59.2480 O   0  0  0  0  0  0  0  0  0  0  0  0
    1.7080   52.4810   59.5120 C   0  0  0  0  0  0  0  0  0  0  0  0
    2.7310   51.6030   59.2840 N   0  0  0  0  0  0  0  0  0  0  0  0
    4.1110   52.0130   59.4420 C   0  0  0  0  0  1  0  0  0  0  0  0
    2.5100   50.1880   59.0240 C   0  0  0  0  0  1  0  0  0  0  0  0
    1.8160   53.7110   59.8990 N   0  0  0  0  0  0  0  0  0  0  0  0
    0.4370   54.2370   59.8540 C   0  0  2  0  0  3  0  0  0  0  0  0
   -0.0360   54.7880   61.2030 C   0  0  1  0  0  3  0  0  0  0  0  0
   -0.8360   55.9600   60.9850 O   0  0  0  0  0  0  0  0  0  0  0  0
   -0.2620   56.7230   60.8210 H   0  0  0  0  0  0  0  0  0  0  0  0
   -2.7680   53.0050   60.4210 C   0  0  0  0  0  2  0  0  0  0  0  0
   -3.5710   52.9810   61.5890 O   0  0  0  0  0  0  0  0  0  0  0  0
   -3.2380   53.6830   62.1750 H   0  0  0  0  0  0  0  0  0  0  0  0
   -1.9660   48.7470   66.2070 O   0  0  0  0  0  0  0  0  0  0  0  0
   -2.4610   47.4570   68.3150 C   0  0  1  0  0  3  0  0  0  0  0  0
   -1.4260   48.4370   67.5840 C   0  0  1  0  0  3  0  0  0  0  0  0
   -0.1300   47.7830   67.5520 O   0  0  0  0  0  0  0  0  0  0  0  0
    0.3440   47.1560   68.7870 C   0  0  1  0  0  3  0  0  0  0  0  0
   -0.6130   46.0750   69.3170 C   0  0  2  0  0  3  0  0  0  0  0  0
   -1.9500   46.7300   69.6040 C   0  0  1  0  0  3  0  0  0  0  0  0
   -6.2050   48.1410   68.2670 C   0  0  0  0  0  1  0  0  0  0  0  0
   -4.9610   47.2960   68.1330 C   0  0  0  0  0  0  0  0  0  0  0  0
   -4.9530   46.1420   67.7190 O   0  0  0  0  0  0  0  0  0  0  0  0
   -3.8210   47.9630   68.5060 N   0  0  0  0  0  0  0  0  0  0  0  0
   -3.9050   48.9450   68.7440 H   0  0  0  0  0  0  0  0  0  0  0  0
   -1.7740   47.5010   70.8070 O   0  0  0  0  0  0  0  0  0  0  0  0
   -1.7170   46.9080   71.5820 H   0  0  0  0  0  0  0  0  0  0  0  0
   -0.1190   45.4490   70.5160 O   0  0  0  0  0  0  0  0  0  0  0  0
   -0.7590   44.7490   70.7630 H   0  0  0  0  0  0  0  0  0  0  0  0
    1.7150   46.4760   68.5510 C   0  0  0  0  0  2  0  0  0  0  0  0
    2.4710   46.3460   69.7550 O   0  0  0  0  0  0  0  0  0  0  0  0
    3.1840   47.0010   69.7310 H   0  0  0  0  0  0  0  0  0  0  0  0
  1  2  1  0  0  0  0
  1 34  1  1  0  0  0
  2 12  1  6  0  0  0
  3  7  1  1  0  0  0
  3  2  1  0  0  0  0
  4 17  1  6  0  0  0
  4  3  1  0  0  0  0
  5  4  1  0  0  0  0
  5  6  1  0  0  0  0
  6 14  1  6  0  0  0
  6  1  1  0  0  0  0
  7  8  1  0  0  0  0
  8  9  1  0  0  0  0
  8 10  2  0  0  0  0
 11  7  1  0  0  0  0
 12 13  1  0  0  0  0
 14 15  1  0  0  0  0
 15 16  1  0  0  0  0
 18 17  1  1  0  0  0
 19 31  1  6  0  0  0
 19 18  1  0  0  0  0
 20 21  1  1  0  0  0
 20 27  1  0  0  0  0
 20 19  1  0  0  0  0
 21 22  1  0  0  0  0
 22 26  2  0  0  0  0
 23 24  1  0  0  0  0
 23 22  1  0  0  0  0
 25 23  1  0  0  0  0
 27 26  1  1  0  0  0
 27 28  1  0  0  0  0
 28 29  1  6  0  0  0
 28 18  1  0  0  0  0
 30 29  1  0  0  0  0
 31 32  1  0  0  0  0
 32 33  1  0  0  0  0
 35 44  1  1  0  0  0
 35 40  1  0  0  0  0
 36 34  1  6  0  0  0
 36 35  1  0  0  0  0
 37 36  1  0  0  0  0
 37 38  1  0  0  0  0
 38 50  1  6  0  0  0
 38 39  1  0  0  0  0
 39 40  1  0  0  0  0
 39 48  1  1  0  0  0
 40 46  1  1  0  0  0
 42 41  1  0  0  0  0
 42 44  1  0  0  0  0
 43 42  2  0  0  0  0
 44 45  1  0  0  0  0
 46 47  1  0  0  0  0
 48 49  1  0  0  0  0
 50 51  1  0  0  0  0
 52 51  1  0  0  0  0
M  END
>  <MODEL>
8

>  <REMARK>
 VINA RESULT:      -7.2      3.586      7.617
  Name = CHEMBL1230997-40
  20 active torsions:
  status: ('A' for Active; 'I' for Inactive)
    1  A    between atoms: C_1  and  C_2
    2  A    between atoms: N_4  and  C_5
    3  A    between atoms: C_6  and  O_7
    4  A    between atoms: O_7  and  C_8
    5  A    between atoms: C_9  and  O_10
    6  A    between atoms: C_11  and  N_12
    7  A    between atoms: C_13  and  C_14
    8  A    between atoms: C_16  and  O_17
    9  A    between atoms: O_17  and  C_18
   10  A    between atoms: C_19  and  C_20
   11  A    between atoms: C_20  and  O_21
   12  A    between atoms: N_25  and  C_26
   13  A    between atoms: N_25  and  C_27
   14  A    between atoms: C_30  and  O_31
   15  A    between atoms: C_33  and  C_34
   16  A    between atoms: C_34  and  O_35
   17  A    between atoms: C_37  and  C_38
   18  A    between atoms: C_38  and  O_39
   19  A    between atoms: C_40  and  O_41
   20  A    between atoms: C_42  and  O_43
                            x       y       z     vdW  Elec       q    Type
                         _______ _______ _______ _____ _____    ______ ____

>  <TORSDO>
F 16

>  <rfscore_v2>
6.345107584859584

>  <vina_affinity>
-7.000174690614938

>  <vina_gauss1>
110.05860969520967

>  <vina_gauss2>
1780.525861691139

>  <vina_repulsion>
4.654897125599997

>  <vina_hydrophobic>
10.285659021870774

>  <vina_hydrogen>
4.016668357388784

>  <vina_intra_gauss1>
52.990176830929784

>  <vina_intra_gauss2>
586.087170197772

>  <vina_intra_repulsion>
3.321702460630143

>  <vina_intra_hydrophobic>
0.0

>  <vina_intra_hydrogen>
4.390841240411881

>  <vina_num_rotors>
12.0

>  <rfscore_v3>
5.810778500888001

>  <PLEClinear_p5_l1_s65536>
6.473042799245275

>  <nnscore>
6.005191424447283

$$$$
CHEMBL1230997-40
 OpenBabel12202021063D

 52 55  0  0  1  0  0  0  0  0999 V2000
    0.8710   50.4810   63.1930 C   0  0  1  0  0  3  0  0  0  0  0  0
   -0.5870   51.0740   63.0420 C   0  0  2  0  0  3  0  0  0  0  0  0
   -1.3660   51.2170   64.4310 C   0  0  2  0  0  3  0  0  0  0  0  0
   -1.4380   49.8180   65.1040 C   0  0  1  0  0  3  0  0  0  0  0  0
   -0.0730   49.5150   65.3670 O   0  0  0  0  0  0  0  0  0  0  0  0
    0.6690   49.1870   64.1460 C   0  0  2  0  0  3  0  0  0  0  0  0
   -2.6340   51.9490   64.3080 N   0  0  0  0  0  0  0  0  0  0  0  0
   -3.7800   51.4050   63.7930 C   0  0  0  0  0  0  0  0  0  0  0  0
   -4.9630   52.3360   63.7710 C   0  0  0  0  0  1  0  0  0  0  0  0
   -3.8300   50.2520   63.3780 O   0  0  0  0  0  0  0  0  0  0  0  0
   -2.6140   52.9490   64.4710 H   0  0  0  0  0  0  0  0  0  0  0  0
   -1.2850   50.2090   62.1240 O   0  0  0  0  0  0  0  0  0  0  0  0
   -0.7830   50.1170   61.2900 H   0  0  0  0  0  0  0  0  0  0  0  0
    1.8470   48.4460   64.7930 C   0  0  0  0  0  2  0  0  0  0  0  0
    1.6150   47.0170   64.6530 O   0  0  0  0  0  0  0  0  0  0  0  0
    2.0360   46.5990   65.4410 H   0  0  0  0  0  0  0  0  0  0  0  0
   -2.2290   49.4680   66.2430 O   0  0  0  0  0  0  0  0  0  0  0  0
   -2.8420   50.3770   67.1450 C   0  0  2  0  0  3  0  0  0  0  0  0
   -1.8480   51.0910   68.0860 C   0  0  2  0  0  3  0  0  0  0  0  0
   -1.8920   50.3790   69.4510 C   0  0  2  0  0  3  0  0  0  0  0  0
   -0.6990   49.6460   69.7040 O   0  0  0  0  0  0  0  0  0  0  0  0
   -1.0510   48.3360   69.6640 C   0  0  0  0  0  0  0  0  0  0  0  0
   -0.0260   47.4610   69.8930 N   0  0  0  0  0  0  0  0  0  0  0  0
   -0.2690   46.0340   69.9640 C   0  0  0  0  0  1  0  0  0  0  0  0
    1.3700   47.8730   69.9270 C   0  0  0  0  0  1  0  0  0  0  0  0
   -2.2940   48.0360   69.4660 N   0  0  0  0  0  0  0  0  0  0  0  0
   -2.9850   49.3400   69.4130 C   0  0  2  0  0  3  0  0  0  0  0  0
   -3.7540   49.5550   68.1040 C   0  0  1  0  0  3  0  0  0  0  0  0
   -4.9840   50.2400   68.3810 O   0  0  0  0  0  0  0  0  0  0  0  0
   -4.8660   50.8340   69.1380 H   0  0  0  0  0  0  0  0  0  0  0  0
   -2.2600   52.5530   68.2910 C   0  0  0  0  0  2  0  0  0  0  0  0
   -1.5870   53.1040   69.4110 O   0  0  0  0  0  0  0  0  0  0  0  0
   -0.7950   53.5550   69.0700 H   0  0  0  0  0  0  0  0  0  0  0  0
    1.5210   50.1910   61.8830 O   0  0  0  0  0  0  0  0  0  0  0  0
    3.6400   50.1210   60.5220 C   0  0  1  0  0  3  0  0  0  0  0  0
    2.6050   51.0650   61.2980 C   0  0  1  0  0  3  0  0  0  0  0  0
    2.0970   52.0470   60.3570 O   0  0  0  0  0  0  0  0  0  0  0  0
    3.0670   52.7290   59.5000 C   0  0  1  0  0  3  0  0  0  0  0  0
    3.8850   51.7600   58.6300 C   0  0  2  0  0  3  0  0  0  0  0  0
    4.6460   50.8280   59.5520 C   0  0  1  0  0  3  0  0  0  0  0  0
    4.9250   46.9140   62.1210 C   0  0  0  0  0  1  0  0  0  0  0  0
    4.3210   47.7550   61.0210 C   0  0  0  0  0  0  0  0  0  0  0  0
    3.8640   47.3020   59.9790 O   0  0  0  0  0  0  0  0  0  0  0  0
    4.3170   49.0950   61.3170 N   0  0  0  0  0  0  0  0  0  0  0  0
    4.6260   49.3760   62.2420 H   0  0  0  0  0  0  0  0  0  0  0  0
    5.7200   51.6030   60.1160 O   0  0  0  0  0  0  0  0  0  0  0  0
    5.3630   52.3790   60.5910 H   0  0  0  0  0  0  0  0  0  0  0  0
    4.8150   52.4480   57.7710 O   0  0  0  0  0  0  0  0  0  0  0  0
    4.2940   52.8630   57.0530 H   0  0  0  0  0  0  0  0  0  0  0  0
    2.3410   53.7030   58.5380 C   0  0  0  0  0  2  0  0  0  0  0  0
    3.1350   54.8470   58.2230 O   0  0  0  0  0  0  0  0  0  0  0  0
    3.9780   54.7630   58.6930 H   0  0  0  0  0  0  0  0  0  0  0  0
  1 34  1  6  0  0  0
  1  6  1  0  0  0  0
  2 12  1  6  0  0  0
  2  1  1  0  0  0  0
  2  3  1  0  0  0  0
  3  7  1  6  0  0  0
  3  4  1  0  0  0  0
  4  5  1  0  0  0  0
  4 17  1  1  0  0  0
  6 14  1  1  0  0  0
  6  5  1  0  0  0  0
  7 11  1  0  0  0  0
  8  7  1  0  0  0  0
  9  8  1  0  0  0  0
 10  8  2  0  0  0  0
 13 12  1  0  0  0  0
 15 14  1  0  0  0  0
 15 16  1  0  0  0  0
 18 17  1  6  0  0  0
 18 19  1  0  0  0  0
 18 28  1  0  0  0  0
 19 31  1  1  0  0  0
 19 20  1  0  0  0  0
 20 21  1  6  0  0  0
 22 21  1  0  0  0  0
 22 23  1  0  0  0  0
 23 25  1  0  0  0  0
 23 24  1  0  0  0  0
 26 22  2  0  0  0  0
 27 20  1  0  0  0  0
 27 26  1  6  0  0  0
 28 29  1  1  0  0  0
 28 27  1  0  0  0  0
 29 30  1  0  0  0  0
 31 32  1  0  0  0  0
 33 32  1  0  0  0  0
 35 36  1  0  0  0  0
 35 44  1  1  0  0  0
 36 34  1  6  0  0  0
 37 36  1  0  0  0  0
 38 50  1  6  0  0  0
 38 37  1  0  0  0  0
 39 48  1  1  0  0  0
 39 38  1  0  0  0  0
 39 40  1  0  0  0  0
 40 46  1  1  0  0  0
 40 35  1  0  0  0  0
 42 44  1  0  0  0  0
 42 41  1  0  0  0  0
 43 42  2  0  0  0  0
 44 45  1  0  0  0  0
 46 47  1  0  0  0  0
 49 48  1  0  0  0  0
 51 50  1  0  0  0  0
 51 52  1  0  0  0  0
M  END
>  <MODEL>
9

>  <REMARK>
 VINA RESULT:      -7.1      3.833      7.446
  Name = CHEMBL1230997-40
  20 active torsions:
  status: ('A' for Active; 'I' for Inactive)
    1  A    between atoms: C_1  and  C_2
    2  A    between atoms: N_4  and  C_5
    3  A    between atoms: C_6  and  O_7
    4  A    between atoms: O_7  and  C_8
    5  A    between atoms: C_9  and  O_10
    6  A    between atoms: C_11  and  N_12
    7  A    between atoms: C_13  and  C_14
    8  A    between atoms: C_16  and  O_17
    9  A    between atoms: O_17  and  C_18
   10  A    between atoms: C_19  and  C_20
   11  A    between atoms: C_20  and  O_21
   12  A    between atoms: N_25  and  C_26
   13  A    between atoms: N_25  and  C_27
   14  A    between atoms: C_30  and  O_31
   15  A    between atoms: C_33  and  C_34
   16  A    between atoms: C_34  and  O_35
   17  A    between atoms: C_37  and  C_38
   18  A    between atoms: C_38  and  O_39
   19  A    between atoms: C_40  and  O_41
   20  A    between atoms: C_42  and  O_43
                            x       y       z     vdW  Elec       q    Type
                         _______ _______ _______ _____ _____    ______ ____

>  <TORSDO>
F 16

>  <rfscore_v2>
6.30061275757575

>  <vina_affinity>
-7.373892414106209

>  <vina_gauss1>
101.12369068871857

>  <vina_gauss2>
1830.0985561332777

>  <vina_repulsion>
3.274268530725576

>  <vina_hydrophobic>
10.628502600562758

>  <vina_hydrogen>
3.2101841144334005

>  <vina_intra_gauss1>
56.94802980559109

>  <vina_intra_gauss2>
538.9795542023701

>  <vina_intra_repulsion>
2.698437167883497

>  <vina_intra_hydrophobic>
0.0

>  <vina_intra_hydrogen>
2.854507378894324

>  <vina_num_rotors>
12.0

>  <rfscore_v3>
5.948744923909428

>  <PLEClinear_p5_l1_s65536>
4.985478448538727

>  <nnscore>
5.022717060177814

$$$$
