CHEMBL4071081-4137
 OpenBabel12202021053D

 28 30  0  0  1  0  0  0  0  0999 V2000
   -1.0730   47.8090   68.9400 C   0  0  2  0  0  3  0  0  0  0  0  0
   -0.7390   47.5970   70.4410 C   0  0  0  0  0  2  0  0  0  0  0  0
   -0.8060   46.1380   70.8980 C   0  0  0  0  0  2  0  0  0  0  0  0
   -2.0630   45.5120   70.4710 N   0  0  2  0  0  0  0  0  0  0  0  0
   -2.8040   44.8100   71.3640 C   0  0  1  0  0  3  0  0  0  0  0  0
   -2.7280   44.8050   72.6780 N   0  0  0  0  0  0  0  0  0  0  0  0
   -3.7230   43.9620   73.0610 C   0  0  0  0  0  0  0  0  0  0  0  0
   -3.9520   43.7870   74.3600 N   0  0  0  0  0  0  0  0  0  0  0  0
   -4.4290   43.4220   72.0740 N   0  0  0  0  0  2  0  0  0  0  0  0
   -3.8080   43.9450   71.0060 N   0  0  0  0  0  0  0  0  0  0  0  0
   -2.4050   45.6550   69.0630 C   0  0  0  0  0  2  0  0  0  0  0  0
   -2.4520   47.1430   68.7260 C   0  0  0  0  0  2  0  0  0  0  0  0
   -3.5780   44.5000   74.9720 H   0  0  0  0  0  0  0  0  0  0  0  0
   -4.8770   43.4640   74.6060 H   0  0  0  0  0  0  0  0  0  0  0  0
   -4.1050   43.6720   70.0800 H   0  0  0  0  0  0  0  0  0  0  0  0
   -0.0290   47.3460   67.9640 N   0  0  0  0  0  0  0  0  0  0  0  0
    1.3010   47.8590   68.3310 C   0  0  0  0  0  1  0  0  0  0  0  0
   -0.3650   47.8010   66.5830 C   0  0  0  0  0  2  0  0  0  0  0  0
    0.3610   49.0570   66.0530 C   0  0  0  0  0  2  0  0  0  0  0  0
    3.0540   48.0830   62.7790 C   0  0  0  0  0  0  0  0  0  0  0  0
    2.7670   47.1410   63.7780 C   0  0  0  0  0  3  0  0  0  0  0  0
    1.8810   47.4440   64.8190 C   0  0  0  0  0  3  0  0  0  0  0  0
    1.2550   48.6950   64.8820 C   0  0  0  0  0  0  0  0  0  0  0  0
    1.5250   49.6320   63.8770 C   0  0  0  0  0  3  0  0  0  0  0  0
    2.4130   49.3290   62.8390 C   0  0  0  0  0  3  0  0  0  0  0  0
    5.3580   48.5210   61.8430 C   0  0  0  0  0  1  0  0  0  0  0  0
    4.0460   47.7490   61.6770 C   0  0  0  0  0  3  0  0  0  0  0  0
    4.3150   46.2430   61.5970 C   0  0  0  0  0  1  0  0  0  0  0  0
  1 16  1  6  0  0  0
  1  2  1  0  0  0  0
  2  3  1  0  0  0  0
  4 11  1  6  0  0  0
  4  3  1  0  0  0  0
  4  5  1  0  0  0  0
  5  6  1  1  0  0  0
  6  7  2  0  0  0  0
  7  8  1  0  0  0  0
  8 14  1  0  0  0  0
  8 13  1  0  0  0  0
  9  7  1  0  0  0  0
 10  5  1  0  0  0  0
 10  9  1  0  0  0  0
 12  1  1  0  0  0  0
 12 11  1  0  0  0  0
 15 10  1  0  0  0  0
 16 17  1  0  0  0  0
 18 16  1  0  0  0  0
 19 18  1  0  0  0  0
 20 25  2  0  0  0  0
 20 21  1  0  0  0  0
 21 22  2  0  0  0  0
 22 23  1  0  0  0  0
 23 19  1  0  0  0  0
 24 23  2  0  0  0  0
 25 24  1  0  0  0  0
 27 26  1  0  0  0  0
 27 20  1  0  0  0  0
 28 27  1  0  0  0  0
M  END
>  <MODEL>
1

>  <REMARK>
 VINA RESULT:      -9.1      0.000      0.000
  Name = CHEMBL4071081-4137
  8 active torsions:
  status: ('A' for Active; 'I' for Inactive)
    1  A    between atoms: C_1  and  C_2
    2  A    between atoms: C_2  and  C_3
    3  A    between atoms: C_2  and  C_4
    4  A    between atoms: C_7  and  C_8
    5  A    between atoms: C_8  and  C_9
    6  A    between atoms: C_9  and  N_10
    7  A    between atoms: N_10  and  C_11
    8  A    between atoms: N_10  and  C_12
                            x       y       z     vdW  Elec       q    Type
                         _______ _______ _______ _____ _____    ______ ____

>  <TORSDO>
F 5

>  <rfscore_v2>
7.305594053779545

>  <vina_affinity>
-8.42930635506947

>  <vina_gauss1>
83.98785954528768

>  <vina_gauss2>
1340.647697224077

>  <vina_repulsion>
2.0565480085489165

>  <vina_hydrophobic>
57.56929346464087

>  <vina_hydrogen>
2.0223187304643435

>  <vina_intra_gauss1>
20.92520749471381

>  <vina_intra_gauss2>
134.7519271124792

>  <vina_intra_repulsion>
0.2272511973252155

>  <vina_intra_hydrophobic>
13.128708346561915

>  <vina_intra_hydrogen>
0.0

>  <vina_num_rotors>
6.0

>  <rfscore_v3>
7.146057161671667

>  <PLEClinear_p5_l1_s65536>
2.9582134809261547

>  <nnscore>
6.814368768689543

$$$$
CHEMBL4071081-4137
 OpenBabel12202021053D

 28 30  0  0  1  0  0  0  0  0999 V2000
   -5.0740   48.0140   66.2560 C   0  0  2  0  0  3  0  0  0  0  0  0
   -6.2560   47.1160   66.7090 C   0  0  0  0  0  2  0  0  0  0  0  0
   -6.2780   46.8160   68.2100 C   0  0  0  0  0  2  0  0  0  0  0  0
   -4.9640   46.3510   68.6690 N   0  0  2  0  0  0  0  0  0  0  0  0
   -4.8730   45.2350   69.4350 C   0  0  2  0  0  3  0  0  0  0  0  0
   -5.7730   44.2960   69.6370 N   0  0  0  0  0  0  0  0  0  0  0  0
   -5.1440   43.4070   70.4490 C   0  0  0  0  0  0  0  0  0  0  0  0
   -5.7790   42.2890   70.7920 N   0  0  0  0  0  0  0  0  0  0  0  0
   -3.8970   43.7190   70.7840 N   0  0  0  0  0  2  0  0  0  0  0  0
   -3.7580   44.8990   70.1610 N   0  0  0  0  0  0  0  0  0  0  0  0
   -3.8240   47.1780   68.2970 C   0  0  0  0  0  2  0  0  0  0  0  0
   -3.7990   47.3110   66.7770 C   0  0  0  0  0  2  0  0  0  0  0  0
   -6.5620   42.0310   70.2060 H   0  0  0  0  0  0  0  0  0  0  0  0
   -5.1930   41.5170   71.0760 H   0  0  0  0  0  0  0  0  0  0  0  0
   -2.8980   45.4170   70.2730 H   0  0  0  0  0  0  0  0  0  0  0  0
   -5.1610   49.4610   66.6510 N   0  0  0  0  0  0  0  0  0  0  0  0
   -6.2840   50.1260   65.9710 C   0  0  0  0  0  1  0  0  0  0  0  0
   -3.8930   50.1720   66.3120 C   0  0  0  0  0  2  0  0  0  0  0  0
   -3.2580   51.0530   67.4120 C   0  0  0  0  0  2  0  0  0  0  0  0
    0.0160   48.8510   69.2420 C   0  0  0  0  0  0  0  0  0  0  0  0
   -0.0470   49.0200   67.8520 C   0  0  0  0  0  3  0  0  0  0  0  0
   -1.0870   49.7500   67.2620 C   0  0  0  0  0  3  0  0  0  0  0  0
   -2.0850   50.3340   68.0510 C   0  0  0  0  0  0  0  0  0  0  0  0
   -2.0170   50.1820   69.4410 C   0  0  0  0  0  3  0  0  0  0  0  0
   -0.9780   49.4510   70.0280 C   0  0  0  0  0  3  0  0  0  0  0  0
    0.7430   47.4940   71.2430 C   0  0  0  0  0  1  0  0  0  0  0  0
    1.1320   48.0250   69.8610 C   0  0  0  0  0  3  0  0  0  0  0  0
    1.5580   46.8750   68.9430 C   0  0  0  0  0  1  0  0  0  0  0  0
  1 16  1  1  0  0  0
  1  2  1  0  0  0  0
  1 12  1  0  0  0  0
  2  3  1  0  0  0  0
  4  3  1  1  0  0  0
  4  5  1  0  0  0  0
  5  6  1  1  0  0  0
  5 10  1  0  0  0  0
  6  7  2  0  0  0  0
  7  9  1  0  0  0  0
  7  8  1  0  0  0  0
  8 14  1  0  0  0  0
 10 15  1  0  0  0  0
 10  9  1  0  0  0  0
 11  4  1  0  0  0  0
 12 11  1  0  0  0  0
 13  8  1  0  0  0  0
 17 16  1  0  0  0  0
 18 16  1  0  0  0  0
 18 19  1  0  0  0  0
 19 23  1  0  0  0  0
 20 27  1  0  0  0  0
 20 25  1  0  0  0  0
 21 20  2  0  0  0  0
 22 21  1  0  0  0  0
 22 23  2  0  0  0  0
 23 24  1  0  0  0  0
 24 25  2  0  0  0  0
 27 26  1  0  0  0  0
 28 27  1  0  0  0  0
M  END
>  <MODEL>
2

>  <REMARK>
 VINA RESULT:      -8.4      4.074      5.668
  Name = CHEMBL4071081-4137
  8 active torsions:
  status: ('A' for Active; 'I' for Inactive)
    1  A    between atoms: C_1  and  C_2
    2  A    between atoms: C_2  and  C_3
    3  A    between atoms: C_2  and  C_4
    4  A    between atoms: C_7  and  C_8
    5  A    between atoms: C_8  and  C_9
    6  A    between atoms: C_9  and  N_10
    7  A    between atoms: N_10  and  C_11
    8  A    between atoms: N_10  and  C_12
                            x       y       z     vdW  Elec       q    Type
                         _______ _______ _______ _____ _____    ______ ____

>  <TORSDO>
F 5

>  <rfscore_v2>
7.01717558136308

>  <vina_affinity>
-7.042148464860264

>  <vina_gauss1>
68.25737373321999

>  <vina_gauss2>
1187.0987866901992

>  <vina_repulsion>
0.8778204713691004

>  <vina_hydrophobic>
41.16024739165809

>  <vina_hydrogen>
0.427929888083481

>  <vina_intra_gauss1>
35.57361768650941

>  <vina_intra_gauss2>
234.67497521865374

>  <vina_intra_repulsion>
0.23043981523262783

>  <vina_intra_hydrophobic>
22.686528633444595

>  <vina_intra_hydrogen>
0.0

>  <vina_num_rotors>
6.0

>  <rfscore_v3>
6.695047907664233

>  <PLEClinear_p5_l1_s65536>
1.0952618903824631

>  <nnscore>
6.717394009739239

$$$$
CHEMBL4071081-4137
 OpenBabel12202021053D

 28 30  0  0  1  0  0  0  0  0999 V2000
   -1.3090   49.6560   68.4300 C   0  0  2  0  0  3  0  0  0  0  0  0
   -0.7840   49.2030   69.8180 C   0  0  0  0  0  2  0  0  0  0  0  0
   -0.4050   47.7210   69.8920 C   0  0  0  0  0  2  0  0  0  0  0  0
   -1.4810   46.8800   69.3550 N   0  0  2  0  0  0  0  0  0  0  0  0
   -1.9110   45.8040   70.0610 C   0  0  1  0  0  3  0  0  0  0  0  0
   -1.7080   45.5120   71.3280 N   0  0  0  0  0  0  0  0  0  0  0  0
   -2.3930   44.3530   71.5110 C   0  0  0  0  0  0  0  0  0  0  0  0
   -2.4370   43.8190   72.7300 N   0  0  0  0  0  0  0  0  0  0  0  0
   -3.0200   43.8810   70.4400 N   0  0  0  0  0  2  0  0  0  0  0  0
   -2.6720   44.7960   69.5230 N   0  0  0  0  0  0  0  0  0  0  0  0
   -1.9860   47.2450   68.0390 C   0  0  0  0  0  2  0  0  0  0  0  0
   -2.4690   48.6920   68.0920 C   0  0  0  0  0  2  0  0  0  0  0  0
   -2.2120   44.4440   73.4920 H   0  0  0  0  0  0  0  0  0  0  0  0
   -3.2100   43.1950   72.9120 H   0  0  0  0  0  0  0  0  0  0  0  0
   -2.9740   44.6750   68.5660 H   0  0  0  0  0  0  0  0  0  0  0  0
   -0.2800   49.7570   67.3400 N   0  0  0  0  0  0  0  0  0  0  0  0
    0.1180   51.1560   67.1170 C   0  0  0  0  0  1  0  0  0  0  0  0
   -0.8110   49.1900   66.0650 C   0  0  0  0  0  2  0  0  0  0  0  0
   -0.5910   50.0140   64.7760 C   0  0  0  0  0  2  0  0  0  0  0  0
    3.1120   48.7770   62.8570 C   0  0  0  0  0  0  0  0  0  0  0  0
    2.4710   47.9440   63.7860 C   0  0  0  0  0  3  0  0  0  0  0  0
    1.2650   48.3290   64.3860 C   0  0  0  0  0  3  0  0  0  0  0  0
    0.6690   49.5550   64.0660 C   0  0  0  0  0  0  0  0  0  0  0  0
    1.2970   50.3830   63.1270 C   0  0  0  0  0  3  0  0  0  0  0  0
    2.5020   49.9970   62.5300 C   0  0  0  0  0  3  0  0  0  0  0  0
    4.3610   46.9560   61.6340 C   0  0  0  0  0  1  0  0  0  0  0  0
    4.4370   48.3580   62.2430 C   0  0  0  0  0  3  0  0  0  0  0  0
    4.9210   49.3710   61.2020 C   0  0  0  0  0  1  0  0  0  0  0  0
  1 16  1  6  0  0  0
  1  2  1  0  0  0  0
  2  3  1  0  0  0  0
  4 11  1  6  0  0  0
  4  3  1  0  0  0  0
  4  5  1  0  0  0  0
  5  6  1  1  0  0  0
  6  7  2  0  0  0  0
  7  8  1  0  0  0  0
  8 14  1  0  0  0  0
  8 13  1  0  0  0  0
  9  7  1  0  0  0  0
 10  5  1  0  0  0  0
 10  9  1  0  0  0  0
 11 12  1  0  0  0  0
 12  1  1  0  0  0  0
 15 10  1  0  0  0  0
 17 16  1  0  0  0  0
 18 16  1  0  0  0  0
 19 18  1  0  0  0  0
 20 21  1  0  0  0  0
 21 22  2  0  0  0  0
 23 22  1  0  0  0  0
 23 19  1  0  0  0  0
 24 23  2  0  0  0  0
 25 20  2  0  0  0  0
 25 24  1  0  0  0  0
 26 27  1  0  0  0  0
 27 20  1  0  0  0  0
 28 27  1  0  0  0  0
M  END
>  <MODEL>
3

>  <REMARK>
 VINA RESULT:      -8.4      1.322      1.920
  Name = CHEMBL4071081-4137
  8 active torsions:
  status: ('A' for Active; 'I' for Inactive)
    1  A    between atoms: C_1  and  C_2
    2  A    between atoms: C_2  and  C_3
    3  A    between atoms: C_2  and  C_4
    4  A    between atoms: C_7  and  C_8
    5  A    between atoms: C_8  and  C_9
    6  A    between atoms: C_9  and  N_10
    7  A    between atoms: N_10  and  C_11
    8  A    between atoms: N_10  and  C_12
                            x       y       z     vdW  Elec       q    Type
                         _______ _______ _______ _____ _____    ______ ____

>  <TORSDO>
F 5

>  <rfscore_v2>
7.272761224442226

>  <vina_affinity>
-8.06627741709465

>  <vina_gauss1>
77.09340439766181

>  <vina_gauss2>
1295.3906347007235

>  <vina_repulsion>
1.0617693921966826

>  <vina_hydrophobic>
54.27958779283848

>  <vina_hydrogen>
0.7759330098789772

>  <vina_intra_gauss1>
21.585576467441463

>  <vina_intra_gauss2>
154.82157858697792

>  <vina_intra_repulsion>
1.4518982764633845

>  <vina_intra_hydrophobic>
12.64180808164107

>  <vina_intra_hydrogen>
0.0

>  <vina_num_rotors>
6.0

>  <rfscore_v3>
6.961861164557669

>  <PLEClinear_p5_l1_s65536>
3.1103602970077566

>  <nnscore>
6.965097781311121

$$$$
CHEMBL4071081-4137
 OpenBabel12202021053D

 28 30  0  0  1  0  0  0  0  0999 V2000
   -0.1630   50.1790   66.5620 C   0  0  2  0  0  3  0  0  0  0  0  0
   -0.0700   51.1120   65.3250 C   0  0  0  0  0  2  0  0  0  0  0  0
    0.1410   50.3760   63.9990 C   0  0  0  0  0  2  0  0  0  0  0  0
    1.2410   49.4110   64.1060 N   0  0  2  0  0  0  0  0  0  0  0  0
    2.2090   49.3850   63.1550 C   0  0  1  0  0  3  0  0  0  0  0  0
    2.4960   50.2900   62.2430 N   0  0  0  0  0  0  0  0  0  0  0  0
    3.5690   49.7700   61.5920 C   0  0  0  0  0  0  0  0  0  0  0  0
    4.1480   50.4890   60.6330 N   0  0  0  0  0  0  0  0  0  0  0  0
    3.9860   48.5860   62.0270 N   0  0  0  0  0  2  0  0  0  0  0  0
    3.0890   48.3440   62.9930 N   0  0  0  0  0  0  0  0  0  0  0  0
    1.1830   48.4920   65.2330 C   0  0  0  0  0  2  0  0  0  0  0  0
    1.1140   49.3090   66.5200 C   0  0  0  0  0  2  0  0  0  0  0  0
    3.9450   51.4800   60.6430 H   0  0  0  0  0  0  0  0  0  0  0  0
    5.1100   50.2580   60.4270 H   0  0  0  0  0  0  0  0  0  0  0  0
    3.1260   47.4660   63.4910 H   0  0  0  0  0  0  0  0  0  0  0  0
   -1.4280   49.3780   66.6850 N   0  0  0  0  0  0  0  0  0  0  0  0
   -2.6080   50.2060   66.3920 C   0  0  0  0  0  1  0  0  0  0  0  0
   -1.5560   48.8120   68.0610 C   0  0  0  0  0  2  0  0  0  0  0  0
   -1.1920   47.3240   68.2540 C   0  0  0  0  0  2  0  0  0  0  0  0
   -4.6770   44.9250   69.2650 C   0  0  0  0  0  0  0  0  0  0  0  0
   -3.4700   44.7680   69.9610 C   0  0  0  0  0  3  0  0  0  0  0  0
   -2.3540   45.5560   69.6540 C   0  0  0  0  0  3  0  0  0  0  0  0
   -2.4220   46.5270   68.6470 C   0  0  0  0  0  0  0  0  0  0  0  0
   -3.6300   46.6990   67.9610 C   0  0  0  0  0  3  0  0  0  0  0  0
   -4.7430   45.9090   68.2680 C   0  0  0  0  0  3  0  0  0  0  0  0
   -5.8990   43.6490   71.0690 C   0  0  0  0  0  1  0  0  0  0  0  0
   -5.8660   44.0360   69.5880 C   0  0  0  0  0  3  0  0  0  0  0  0
   -7.1880   44.6900   69.1740 C   0  0  0  0  0  1  0  0  0  0  0  0
  1 16  1  6  0  0  0
  2  1  1  0  0  0  0
  3  2  1  0  0  0  0
  4  3  1  6  0  0  0
  4 11  1  0  0  0  0
  5  6  1  1  0  0  0
  5  4  1  0  0  0  0
  7  9  1  0  0  0  0
  7  6  2  0  0  0  0
  8 13  1  0  0  0  0
  8  7  1  0  0  0  0
  9 10  1  0  0  0  0
 10  5  1  0  0  0  0
 10 15  1  0  0  0  0
 11 12  1  0  0  0  0
 12  1  1  0  0  0  0
 14  8  1  0  0  0  0
 16 18  1  0  0  0  0
 17 16  1  0  0  0  0
 18 19  1  0  0  0  0
 19 23  1  0  0  0  0
 20 27  1  0  0  0  0
 20 21  1  0  0  0  0
 22 21  2  0  0  0  0
 23 22  1  0  0  0  0
 24 25  1  0  0  0  0
 24 23  2  0  0  0  0
 25 20  2  0  0  0  0
 27 26  1  0  0  0  0
 28 27  1  0  0  0  0
M  END
>  <MODEL>
4

>  <REMARK>
 VINA RESULT:      -8.2      3.926      9.868
  Name = CHEMBL4071081-4137
  8 active torsions:
  status: ('A' for Active; 'I' for Inactive)
    1  A    between atoms: C_1  and  C_2
    2  A    between atoms: C_2  and  C_3
    3  A    between atoms: C_2  and  C_4
    4  A    between atoms: C_7  and  C_8
    5  A    between atoms: C_8  and  C_9
    6  A    between atoms: C_9  and  N_10
    7  A    between atoms: N_10  and  C_11
    8  A    between atoms: N_10  and  C_12
                            x       y       z     vdW  Elec       q    Type
                         _______ _______ _______ _____ _____    ______ ____

>  <TORSDO>
F 5

>  <rfscore_v2>
6.909713560661559

>  <vina_affinity>
-7.764501921191839

>  <vina_gauss1>
76.1988199145919

>  <vina_gauss2>
1176.9905980260196

>  <vina_repulsion>
0.31227870617131287

>  <vina_hydrophobic>
56.017285867246336

>  <vina_hydrogen>
0.0

>  <vina_intra_gauss1>
22.475771347876073

>  <vina_intra_gauss2>
146.73034919959167

>  <vina_intra_repulsion>
0.22339166561050278

>  <vina_intra_hydrophobic>
13.400265808577858

>  <vina_intra_hydrogen>
0.0

>  <vina_num_rotors>
6.0

>  <rfscore_v3>
6.408538385447885

>  <PLEClinear_p5_l1_s65536>
1.758318247950841

>  <nnscore>
6.931210153225623

$$$$
CHEMBL4071081-4137
 OpenBabel12202021053D

 28 30  0  0  1  0  0  0  0  0999 V2000
   -2.0390   48.7930   65.1700 C   0  0  2  0  0  3  0  0  0  0  0  0
   -3.3860   48.1710   65.6270 C   0  0  0  0  0  2  0  0  0  0  0  0
   -3.5600   48.1000   67.1470 C   0  0  0  0  0  2  0  0  0  0  0  0
   -2.3790   47.5030   67.7810 N   0  0  2  0  0  0  0  0  0  0  0  0
   -2.5340   46.5100   68.6930 C   0  0  1  0  0  3  0  0  0  0  0  0
   -3.5930   45.7660   68.9330 N   0  0  0  0  0  0  0  0  0  0  0  0
   -3.1810   44.9150   69.9090 C   0  0  0  0  0  0  0  0  0  0  0  0
   -4.0210   43.9750   70.3370 N   0  0  0  0  0  0  0  0  0  0  0  0
   -1.9250   45.0690   70.3120 N   0  0  0  0  0  2  0  0  0  0  0  0
   -1.5440   46.1080   69.5550 N   0  0  0  0  0  0  0  0  0  0  0  0
   -1.0920   48.0730   67.4090 C   0  0  0  0  0  2  0  0  0  0  0  0
   -0.9420   47.9780   65.8930 C   0  0  0  0  0  2  0  0  0  0  0  0
   -4.7950   43.7640   69.7220 H   0  0  0  0  0  0  0  0  0  0  0  0
   -3.5970   43.1680   70.7730 H   0  0  0  0  0  0  0  0  0  0  0  0
   -0.6180   46.4920   69.6750 H   0  0  0  0  0  0  0  0  0  0  0  0
   -1.9040   50.2770   65.3610 N   0  0  0  0  0  0  0  0  0  0  0  0
   -2.8490   51.0080   64.5020 C   0  0  0  0  0  1  0  0  0  0  0  0
   -0.5130   50.7200   65.0460 C   0  0  0  0  0  2  0  0  0  0  0  0
   -0.1890   51.0440   63.5710 C   0  0  0  0  0  2  0  0  0  0  0  0
    3.4740   49.0660   62.3080 C   0  0  0  0  0  0  0  0  0  0  0  0
    2.9900   50.1890   61.6220 C   0  0  0  0  0  3  0  0  0  0  0  0
    1.8250   50.8430   62.0420 C   0  0  0  0  0  3  0  0  0  0  0  0
    1.1190   50.3920   63.1630 C   0  0  0  0  0  0  0  0  0  0  0  0
    1.6070   49.2810   63.8620 C   0  0  0  0  0  3  0  0  0  0  0  0
    2.7710   48.6280   63.4400 C   0  0  0  0  0  3  0  0  0  0  0  0
    4.7240   46.8740   62.2280 C   0  0  0  0  0  1  0  0  0  0  0  0
    4.7200   48.3490   61.8160 C   0  0  0  0  0  3  0  0  0  0  0  0
    4.8880   48.4840   60.3000 C   0  0  0  0  0  1  0  0  0  0  0  0
  1 16  1  1  0  0  0
  1  2  1  0  0  0  0
  1 12  1  0  0  0  0
  2  3  1  0  0  0  0
  4  3  1  1  0  0  0
  4  5  1  0  0  0  0
  5  6  1  6  0  0  0
  5 10  1  0  0  0  0
  6  7  2  0  0  0  0
  7  9  1  0  0  0  0
  7  8  1  0  0  0  0
  8 14  1  0  0  0  0
 10 15  1  0  0  0  0
 10  9  1  0  0  0  0
 11  4  1  0  0  0  0
 12 11  1  0  0  0  0
 13  8  1  0  0  0  0
 17 16  1  0  0  0  0
 18 16  1  0  0  0  0
 19 18  1  0  0  0  0
 20 25  1  0  0  0  0
 21 22  1  0  0  0  0
 21 20  2  0  0  0  0
 22 23  2  0  0  0  0
 23 19  1  0  0  0  0
 23 24  1  0  0  0  0
 25 24  2  0  0  0  0
 27 26  1  0  0  0  0
 27 20  1  0  0  0  0
 28 27  1  0  0  0  0
M  END
>  <MODEL>
5

>  <REMARK>
 VINA RESULT:      -8.1      1.959      3.559
  Name = CHEMBL4071081-4137
  8 active torsions:
  status: ('A' for Active; 'I' for Inactive)
    1  A    between atoms: C_1  and  C_2
    2  A    between atoms: C_2  and  C_3
    3  A    between atoms: C_2  and  C_4
    4  A    between atoms: C_7  and  C_8
    5  A    between atoms: C_8  and  C_9
    6  A    between atoms: C_9  and  N_10
    7  A    between atoms: N_10  and  C_11
    8  A    between atoms: N_10  and  C_12
                            x       y       z     vdW  Elec       q    Type
                         _______ _______ _______ _____ _____    ______ ____

>  <TORSDO>
F 5

>  <rfscore_v2>
6.966367159784657

>  <vina_affinity>
-7.547817874242085

>  <vina_gauss1>
72.06468691775783

>  <vina_gauss2>
1131.4707806887332

>  <vina_repulsion>
0.4050451849262593

>  <vina_hydrophobic>
56.75254452104002

>  <vina_hydrogen>
0.24094294399415542

>  <vina_intra_gauss1>
25.62050440136878

>  <vina_intra_gauss2>
155.3463884698897

>  <vina_intra_repulsion>
0.25205968727605105

>  <vina_intra_hydrophobic>
18.762198377386305

>  <vina_intra_hydrogen>
0.0

>  <vina_num_rotors>
6.0

>  <rfscore_v3>
6.749985635586638

>  <PLEClinear_p5_l1_s65536>
2.1272224148883456

>  <nnscore>
6.6638606298703476

$$$$
CHEMBL4071081-4137
 OpenBabel12202021053D

 28 30  0  0  1  0  0  0  0  0999 V2000
    1.0940   48.1100   64.3260 C   0  0  2  0  0  3  0  0  0  0  0  0
   -0.2540   48.8750   64.3940 C   0  0  0  0  0  2  0  0  0  0  0  0
   -0.3480   49.8780   65.5470 C   0  0  0  0  0  2  0  0  0  0  0  0
    0.0520   49.2570   66.8140 N   0  0  2  0  0  0  0  0  0  0  0  0
   -0.7320   49.4010   67.9130 C   0  0  1  0  0  3  0  0  0  0  0  0
   -1.9840   49.7990   67.9870 N   0  0  0  0  0  0  0  0  0  0  0  0
   -2.2760   49.7170   69.3120 C   0  0  0  0  0  0  0  0  0  0  0  0
   -3.5120   49.9990   69.7160 N   0  0  0  0  0  0  0  0  0  0  0  0
   -1.2870   49.2950   70.0920 N   0  0  0  0  0  2  0  0  0  0  0  0
   -0.3070   49.1340   69.1900 N   0  0  0  0  0  0  0  0  0  0  0  0
    1.3270   48.5530   66.8110 C   0  0  0  0  0  2  0  0  0  0  0  0
    1.2830   47.4810   65.7250 C   0  0  0  0  0  2  0  0  0  0  0  0
   -4.2250   49.9730   68.9990 H   0  0  0  0  0  0  0  0  0  0  0  0
   -3.7900   49.6000   70.6010 H   0  0  0  0  0  0  0  0  0  0  0  0
    0.6110   48.8530   69.5050 H   0  0  0  0  0  0  0  0  0  0  0  0
    2.2790   48.9090   63.8650 N   0  0  0  0  0  0  0  0  0  0  0  0
    1.8760   49.9400   62.8960 C   0  0  0  0  0  1  0  0  0  0  0  0
    3.2980   48.0180   63.2360 C   0  0  0  0  0  2  0  0  0  0  0  0
    4.2980   48.6660   62.2520 C   0  0  0  0  0  2  0  0  0  0  0  0
    6.1140   45.7430   59.5910 C   0  0  0  0  0  0  0  0  0  0  0  0
    6.1370   45.5610   60.9810 C   0  0  0  0  0  3  0  0  0  0  0  0
    5.5300   46.4880   61.8390 C   0  0  0  0  0  3  0  0  0  0  0  0
    4.8810   47.6160   61.3240 C   0  0  0  0  0  0  0  0  0  0  0  0
    4.8410   47.7940   59.9360 C   0  0  0  0  0  3  0  0  0  0  0  0
    5.4490   46.8680   59.0810 C   0  0  0  0  0  3  0  0  0  0  0  0
    5.8480   43.6520   58.2010 C   0  0  0  0  0  1  0  0  0  0  0  0
    6.8080   44.7460   58.6790 C   0  0  0  0  0  3  0  0  0  0  0  0
    7.4700   45.4390   57.4850 C   0  0  0  0  0  1  0  0  0  0  0  0
  1 16  1  1  0  0  0
  1  2  1  0  0  0  0
  1 12  1  0  0  0  0
  2  3  1  0  0  0  0
  4  3  1  1  0  0  0
  4  5  1  0  0  0  0
  5  6  1  6  0  0  0
  5 10  1  0  0  0  0
  6  7  2  0  0  0  0
  7  8  1  0  0  0  0
  7  9  1  0  0  0  0
  8 14  1  0  0  0  0
 10 15  1  0  0  0  0
 10  9  1  0  0  0  0
 11  4  1  0  0  0  0
 12 11  1  0  0  0  0
 13  8  1  0  0  0  0
 17 16  1  0  0  0  0
 18 16  1  0  0  0  0
 19 18  1  0  0  0  0
 20 21  1  0  0  0  0
 21 22  2  0  0  0  0
 23 22  1  0  0  0  0
 23 19  1  0  0  0  0
 24 23  2  0  0  0  0
 25 20  2  0  0  0  0
 25 24  1  0  0  0  0
 26 27  1  0  0  0  0
 27 20  1  0  0  0  0
 28 27  1  0  0  0  0
M  END
>  <MODEL>
6

>  <REMARK>
 VINA RESULT:      -8.0      3.666      5.779
  Name = CHEMBL4071081-4137
  8 active torsions:
  status: ('A' for Active; 'I' for Inactive)
    1  A    between atoms: C_1  and  C_2
    2  A    between atoms: C_2  and  C_3
    3  A    between atoms: C_2  and  C_4
    4  A    between atoms: C_7  and  C_8
    5  A    between atoms: C_8  and  C_9
    6  A    between atoms: C_9  and  N_10
    7  A    between atoms: N_10  and  C_11
    8  A    between atoms: N_10  and  C_12
                            x       y       z     vdW  Elec       q    Type
                         _______ _______ _______ _____ _____    ______ ____

>  <TORSDO>
F 5

>  <rfscore_v2>
6.912935583305579

>  <vina_affinity>
-7.5577886479101135

>  <vina_gauss1>
69.64888347826209

>  <vina_gauss2>
1215.8395488790184

>  <vina_repulsion>
1.311179057009486

>  <vina_hydrophobic>
49.20675769918996

>  <vina_hydrogen>
1.4166496625742768

>  <vina_intra_gauss1>
15.260481166546167

>  <vina_intra_gauss2>
132.77834722939554

>  <vina_intra_repulsion>
0.22998199589198962

>  <vina_intra_hydrophobic>
11.702405320475204

>  <vina_intra_hydrogen>
0.0

>  <vina_num_rotors>
6.0

>  <rfscore_v3>
6.9070663878898975

>  <PLEClinear_p5_l1_s65536>
2.4461732074314724

>  <nnscore>
7.095955193720141

$$$$
CHEMBL4071081-4137
 OpenBabel12202021053D

 28 30  0  0  1  0  0  0  0  0999 V2000
   -1.7650   50.0400   68.2540 C   0  0  2  0  0  3  0  0  0  0  0  0
   -3.1070   49.9260   69.0250 C   0  0  0  0  0  2  0  0  0  0  0  0
   -4.1650   49.0730   68.3200 C   0  0  0  0  0  2  0  0  0  0  0  0
   -4.3130   49.4770   66.9170 N   0  0  2  0  0  0  0  0  0  0  0  0
   -5.5510   49.6960   66.4060 C   0  0  2  0  0  3  0  0  0  0  0  0
   -6.6890   49.8730   67.0430 N   0  0  0  0  0  0  0  0  0  0  0  0
   -7.5910   50.0870   66.0500 C   0  0  0  0  0  0  0  0  0  0  0  0
   -8.8510   50.3660   66.3770 N   0  0  0  0  0  0  0  0  0  0  0  0
   -7.1040   50.0540   64.8150 N   0  0  0  0  0  2  0  0  0  0  0  0
   -5.8170   49.7690   65.0610 N   0  0  0  0  0  0  0  0  0  0  0  0
   -3.0850   49.5680   66.1410 C   0  0  0  0  0  2  0  0  0  0  0  0
   -2.1420   50.5430   66.8410 C   0  0  0  0  0  2  0  0  0  0  0  0
   -8.9990   50.6870   67.3240 H   0  0  0  0  0  0  0  0  0  0  0  0
   -9.3910   50.8560   65.6770 H   0  0  0  0  0  0  0  0  0  0  0  0
   -5.1850   49.6330   64.2850 H   0  0  0  0  0  0  0  0  0  0  0  0
   -0.9100   48.8050   68.2390 N   0  0  0  0  0  0  0  0  0  0  0  0
   -0.4290   48.4810   69.5910 C   0  0  0  0  0  1  0  0  0  0  0  0
    0.2620   48.9910   67.3330 C   0  0  0  0  0  2  0  0  0  0  0  0
    0.8290   47.7330   66.6390 C   0  0  0  0  0  2  0  0  0  0  0  0
    2.6290   48.8320   62.8350 C   0  0  0  0  0  0  0  0  0  0  0  0
    2.8070   47.5490   63.3700 C   0  0  0  0  0  3  0  0  0  0  0  0
    2.2080   47.1840   64.5820 C   0  0  0  0  0  3  0  0  0  0  0  0
    1.4100   48.0950   65.2850 C   0  0  0  0  0  0  0  0  0  0  0  0
    1.2150   49.3720   64.7460 C   0  0  0  0  0  3  0  0  0  0  0  0
    1.8160   49.7350   63.5360 C   0  0  0  0  0  3  0  0  0  0  0  0
    3.0180   50.6730   61.1510 C   0  0  0  0  0  1  0  0  0  0  0  0
    3.3160   49.2210   61.5360 C   0  0  0  0  0  3  0  0  0  0  0  0
    4.8270   48.9830   61.6050 C   0  0  0  0  0  1  0  0  0  0  0  0
  1 16  1  6  0  0  0
  1  2  1  0  0  0  0
  3  2  1  0  0  0  0
  4 11  1  6  0  0  0
  4  3  1  0  0  0  0
  5  4  1  0  0  0  0
  5  6  1  6  0  0  0
  7  8  1  0  0  0  0
  7  6  2  0  0  0  0
  8 13  1  0  0  0  0
  9 10  1  0  0  0  0
  9  7  1  0  0  0  0
 10  5  1  0  0  0  0
 11 12  1  0  0  0  0
 12  1  1  0  0  0  0
 14  8  1  0  0  0  0
 15 10  1  0  0  0  0
 16 17  1  0  0  0  0
 18 16  1  0  0  0  0
 19 18  1  0  0  0  0
 20 21  2  0  0  0  0
 20 25  1  0  0  0  0
 21 22  1  0  0  0  0
 22 23  2  0  0  0  0
 23 19  1  0  0  0  0
 24 23  1  0  0  0  0
 25 24  2  0  0  0  0
 26 27  1  0  0  0  0
 27 28  1  0  0  0  0
 27 20  1  0  0  0  0
M  END
>  <MODEL>
7

>  <REMARK>
 VINA RESULT:      -7.9      3.996      5.272
  Name = CHEMBL4071081-4137
  8 active torsions:
  status: ('A' for Active; 'I' for Inactive)
    1  A    between atoms: C_1  and  C_2
    2  A    between atoms: C_2  and  C_3
    3  A    between atoms: C_2  and  C_4
    4  A    between atoms: C_7  and  C_8
    5  A    between atoms: C_8  and  C_9
    6  A    between atoms: C_9  and  N_10
    7  A    between atoms: N_10  and  C_11
    8  A    between atoms: N_10  and  C_12
                            x       y       z     vdW  Elec       q    Type
                         _______ _______ _______ _____ _____    ______ ____

>  <TORSDO>
F 5

>  <rfscore_v2>
6.781174432955933

>  <vina_affinity>
-7.437514679443034

>  <vina_gauss1>
66.24453746383458

>  <vina_gauss2>
1187.3268123223695

>  <vina_repulsion>
0.549259768242104

>  <vina_hydrophobic>
57.67944877364583

>  <vina_hydrogen>
0.0

>  <vina_intra_gauss1>
19.684869480150887

>  <vina_intra_gauss2>
158.53498288265956

>  <vina_intra_repulsion>
0.08042221139367196

>  <vina_intra_hydrophobic>
16.092555907552203

>  <vina_intra_hydrogen>
0.0

>  <vina_num_rotors>
6.0

>  <rfscore_v3>
6.535759477078472

>  <PLEClinear_p5_l1_s65536>
2.7734741502213947

>  <nnscore>
6.461001542866386

$$$$
CHEMBL4071081-4137
 OpenBabel12202021053D

 28 30  0  0  1  0  0  0  0  0999 V2000
   -0.8460   48.1830   67.0180 C   0  0  2  0  0  3  0  0  0  0  0  0
    0.3160   49.1180   66.5900 C   0  0  0  0  0  2  0  0  0  0  0  0
   -0.1040   50.5690   66.3430 C   0  0  0  0  0  2  0  0  0  0  0  0
   -1.2770   50.6310   65.4630 N   0  0  2  0  0  0  0  0  0  0  0  0
   -1.2760   51.4720   64.3980 C   0  0  2  0  0  3  0  0  0  0  0  0
   -0.2590   52.0860   63.8300 N   0  0  0  0  0  0  0  0  0  0  0  0
   -0.8210   52.7610   62.7930 C   0  0  0  0  0  0  0  0  0  0  0  0
   -0.0310   53.4450   61.9690 N   0  0  0  0  0  0  0  0  0  0  0  0
   -2.1360   52.6220   62.6630 N   0  0  0  0  0  2  0  0  0  0  0  0
   -2.4090   51.8310   63.7110 N   0  0  0  0  0  0  0  0  0  0  0  0
   -2.4080   49.7950   65.8390 C   0  0  0  0  0  2  0  0  0  0  0  0
   -1.9310   48.3480   65.9280 C   0  0  0  0  0  2  0  0  0  0  0  0
    0.9480   53.1910   61.9860 H   0  0  0  0  0  0  0  0  0  0  0  0
   -0.4040   53.6260   61.0480 H   0  0  0  0  0  0  0  0  0  0  0  0
   -3.3690   51.5810   63.9030 H   0  0  0  0  0  0  0  0  0  0  0  0
   -1.3670   48.3800   68.4130 N   0  0  0  0  0  0  0  0  0  0  0  0
   -0.3550   48.0020   69.4120 C   0  0  0  0  0  1  0  0  0  0  0  0
   -2.5980   47.5640   68.6310 C   0  0  0  0  0  2  0  0  0  0  0  0
   -2.4100   46.1170   69.1400 C   0  0  0  0  0  2  0  0  0  0  0  0
   -6.2790   44.1370   69.2990 C   0  0  0  0  0  0  0  0  0  0  0  0
   -6.0050   45.0990   68.3170 C   0  0  0  0  0  3  0  0  0  0  0  0
   -4.7510   45.7190   68.2480 C   0  0  0  0  0  3  0  0  0  0  0  0
   -3.7400   45.3870   69.1570 C   0  0  0  0  0  0  0  0  0  0  0  0
   -4.0040   44.4140   70.1290 C   0  0  0  0  0  3  0  0  0  0  0  0
   -5.2570   43.7970   70.1980 C   0  0  0  0  0  3  0  0  0  0  0  0
   -8.2400   43.5910   70.7930 C   0  0  0  0  0  1  0  0  0  0  0  0
   -7.6570   43.5000   69.3800 C   0  0  0  0  0  3  0  0  0  0  0  0
   -8.6220   44.1110   68.3600 C   0  0  0  0  0  1  0  0  0  0  0  0
  1 16  1  1  0  0  0
  2  1  1  0  0  0  0
  3  2  1  0  0  0  0
  4 11  1  1  0  0  0
  4  3  1  0  0  0  0
  5  6  1  1  0  0  0
  5  4  1  0  0  0  0
  7  6  2  0  0  0  0
  8 13  1  0  0  0  0
  8  7  1  0  0  0  0
  9  7  1  0  0  0  0
  9 10  1  0  0  0  0
 10 15  1  0  0  0  0
 10  5  1  0  0  0  0
 11 12  1  0  0  0  0
 12  1  1  0  0  0  0
 14  8  1  0  0  0  0
 16 18  1  0  0  0  0
 16 17  1  0  0  0  0
 18 19  1  0  0  0  0
 19 23  1  0  0  0  0
 20 27  1  0  0  0  0
 20 25  1  0  0  0  0
 21 20  2  0  0  0  0
 22 21  1  0  0  0  0
 22 23  2  0  0  0  0
 23 24  1  0  0  0  0
 24 25  2  0  0  0  0
 27 26  1  0  0  0  0
 28 27  1  0  0  0  0
M  END
>  <MODEL>
8

>  <REMARK>
 VINA RESULT:      -7.9      4.171      9.995
  Name = CHEMBL4071081-4137
  8 active torsions:
  status: ('A' for Active; 'I' for Inactive)
    1  A    between atoms: C_1  and  C_2
    2  A    between atoms: C_2  and  C_3
    3  A    between atoms: C_2  and  C_4
    4  A    between atoms: C_7  and  C_8
    5  A    between atoms: C_8  and  C_9
    6  A    between atoms: C_9  and  N_10
    7  A    between atoms: N_10  and  C_11
    8  A    between atoms: N_10  and  C_12
                            x       y       z     vdW  Elec       q    Type
                         _______ _______ _______ _____ _____    ______ ____

>  <TORSDO>
F 5

>  <rfscore_v2>
6.747835060328561

>  <vina_affinity>
-7.335867251065359

>  <vina_gauss1>
70.91286850103802

>  <vina_gauss2>
1066.3598860932307

>  <vina_repulsion>
0.33773459703338127

>  <vina_hydrophobic>
61.75323609171839

>  <vina_hydrogen>
0.0

>  <vina_intra_gauss1>
18.275362587243634

>  <vina_intra_gauss2>
138.36957782626132

>  <vina_intra_repulsion>
0.09774637270492284

>  <vina_intra_hydrophobic>
15.821904036347682

>  <vina_intra_hydrogen>
0.0

>  <vina_num_rotors>
6.0

>  <rfscore_v3>
6.470118772616269

>  <PLEClinear_p5_l1_s65536>
0.6758010646684434

>  <nnscore>
5.968637177944391

$$$$
CHEMBL4071081-4137
 OpenBabel12202021053D

 28 30  0  0  1  0  0  0  0  0999 V2000
   -4.1780   48.2650   68.3980 C   0  0  2  0  0  3  0  0  0  0  0  0
   -5.2750   47.8470   67.3830 C   0  0  0  0  0  2  0  0  0  0  0  0
   -4.9560   48.2080   65.9300 C   0  0  0  0  0  2  0  0  0  0  0  0
   -4.5420   49.6120   65.8190 N   0  0  2  0  0  0  0  0  0  0  0  0
   -5.1030   50.4080   64.8730 C   0  0  2  0  0  3  0  0  0  0  0  0
   -6.1960   50.2080   64.1680 N   0  0  0  0  0  0  0  0  0  0  0  0
   -6.3060   51.3300   63.4110 C   0  0  0  0  0  0  0  0  0  0  0  0
   -7.3660   51.4670   62.6170 N   0  0  0  0  0  0  0  0  0  0  0  0
   -5.3500   52.2360   63.5830 N   0  0  0  0  0  2  0  0  0  0  0  0
   -4.5780   51.6160   64.4870 N   0  0  0  0  0  0  0  0  0  0  0  0
   -3.4920   50.0460   66.7300 C   0  0  0  0  0  2  0  0  0  0  0  0
   -3.9510   49.7760   68.1600 C   0  0  0  0  0  2  0  0  0  0  0  0
   -8.1590   50.8790   62.8360 H   0  0  0  0  0  0  0  0  0  0  0  0
   -7.6040   52.4140   62.3560 H   0  0  0  0  0  0  0  0  0  0  0  0
   -3.7210   52.0570   64.7900 H   0  0  0  0  0  0  0  0  0  0  0  0
   -2.9120   47.4580   68.3650 N   0  0  0  0  0  0  0  0  0  0  0  0
   -3.1660   46.0600   68.7500 C   0  0  0  0  0  1  0  0  0  0  0  0
   -1.8960   48.0420   69.2900 C   0  0  0  0  0  2  0  0  0  0  0  0
   -0.5470   48.4790   68.6760 C   0  0  0  0  0  2  0  0  0  0  0  0
    2.6670   47.0410   71.2310 C   0  0  0  0  0  0  0  0  0  0  0  0
    2.6960   46.8190   69.8470 C   0  0  0  0  0  3  0  0  0  0  0  0
    1.6750   47.3030   69.0190 C   0  0  0  0  0  3  0  0  0  0  0  0
    0.6040   48.0270   69.5560 C   0  0  0  0  0  0  0  0  0  0  0  0
    0.5800   48.2660   70.9360 C   0  0  0  0  0  3  0  0  0  0  0  0
    1.5990   47.7800   71.7620 C   0  0  0  0  0  3  0  0  0  0  0  0
    5.1400   46.5830   71.4520 C   0  0  0  0  0  1  0  0  0  0  0  0
    3.7650   46.4780   72.1180 C   0  0  0  0  0  3  0  0  0  0  0  0
    3.7810   47.1510   73.4930 C   0  0  0  0  0  1  0  0  0  0  0  0
  1 16  1  6  0  0  0
  2  1  1  0  0  0  0
  3  2  1  0  0  0  0
  4  3  1  6  0  0  0
  4 11  1  0  0  0  0
  5  6  1  6  0  0  0
  5  4  1  0  0  0  0
  7  9  1  0  0  0  0
  7  6  2  0  0  0  0
  8 13  1  0  0  0  0
  8  7  1  0  0  0  0
  9 10  1  0  0  0  0
 10 15  1  0  0  0  0
 10  5  1  0  0  0  0
 11 12  1  0  0  0  0
 12  1  1  0  0  0  0
 14  8  1  0  0  0  0
 16 17  1  0  0  0  0
 16 18  1  0  0  0  0
 19 18  1  0  0  0  0
 19 23  1  0  0  0  0
 20 25  1  0  0  0  0
 20 27  1  0  0  0  0
 21 20  2  0  0  0  0
 22 23  2  0  0  0  0
 22 21  1  0  0  0  0
 23 24  1  0  0  0  0
 24 25  2  0  0  0  0
 26 27  1  0  0  0  0
 27 28  1  0  0  0  0
M  END
>  <MODEL>
9

>  <REMARK>
 VINA RESULT:      -7.8      4.780      8.144
  Name = CHEMBL4071081-4137
  8 active torsions:
  status: ('A' for Active; 'I' for Inactive)
    1  A    between atoms: C_1  and  C_2
    2  A    between atoms: C_2  and  C_3
    3  A    between atoms: C_2  and  C_4
    4  A    between atoms: C_7  and  C_8
    5  A    between atoms: C_8  and  C_9
    6  A    between atoms: C_9  and  N_10
    7  A    between atoms: N_10  and  C_11
    8  A    between atoms: N_10  and  C_12
                            x       y       z     vdW  Elec       q    Type
                         _______ _______ _______ _____ _____    ______ ____

>  <TORSDO>
F 5

>  <rfscore_v2>
6.701372103507611

>  <vina_affinity>
-7.4574620515370835

>  <vina_gauss1>
93.33420539897037

>  <vina_gauss2>
1219.9492900742052

>  <vina_repulsion>
3.1755873073447582

>  <vina_hydrophobic>
75.55764631075954

>  <vina_hydrogen>
0.8054772322015223

>  <vina_intra_gauss1>
19.433490439262577

>  <vina_intra_gauss2>
141.3768841620716

>  <vina_intra_repulsion>
0.0928102195659022

>  <vina_intra_hydrophobic>
13.17044037567711

>  <vina_intra_hydrogen>
0.0

>  <vina_num_rotors>
6.0

>  <rfscore_v3>
6.699716228604725

>  <PLEClinear_p5_l1_s65536>
2.2200394321705446

>  <nnscore>
6.609263443218866

$$$$
