CHEMBL4084148-2025
 OpenBabel12202021063D

 27 29  0  0  1  0  0  0  0  0999 V2000
   -0.4650   49.3380   64.8430 C   0  0  2  0  0  3  0  0  0  0  0  0
   -0.2300   47.8180   64.7260 C   0  0  0  0  0  2  0  0  0  0  0  0
    1.2340   47.4320   64.8900 C   0  0  0  0  0  2  0  0  0  0  0  0
    2.0200   48.0960   63.8660 N   0  0  2  0  0  0  0  0  0  0  0  0
    2.9070   47.4400   63.0800 C   0  0  2  0  0  3  0  0  0  0  0  0
    3.4320   47.8200   61.9320 N   0  0  0  0  0  0  0  0  0  0  0  0
    4.1520   46.7330   61.5430 C   0  0  0  0  0  0  0  0  0  0  0  0
    4.7480   46.7580   60.3560 N   0  0  0  0  0  0  0  0  0  0  0  0
    4.1990   45.7260   62.4090 N   0  0  0  0  0  2  0  0  0  0  0  0
    3.4040   46.1970   63.3800 N   0  0  0  0  0  0  0  0  0  0  0  0
    1.8940   49.5500   63.7990 C   0  0  0  0  0  2  0  0  0  0  0  0
    0.4180   49.9530   63.7140 C   0  0  0  0  0  2  0  0  0  0  0  0
    4.8640   47.6650   59.9290 H   0  0  0  0  0  0  0  0  0  0  0  0
    5.4940   46.0980   60.1970 H   0  0  0  0  0  0  0  0  0  0  0  0
    3.2490   45.6400   64.2080 H   0  0  0  0  0  0  0  0  0  0  0  0
   -0.1370   51.4170   66.0940 C   0  0  0  0  0  1  0  0  0  0  0  0
   -0.2410   49.9420   66.1930 N   0  0  0  0  0  0  0  0  0  0  0  0
   -1.3010   49.6730   67.2110 C   0  0  0  0  0  2  0  0  0  0  0  0
   -1.3190   48.3370   67.9940 C   0  0  0  0  0  2  0  0  0  0  0  0
   -0.1170   47.9930   68.8540 C   0  0  0  0  0  0  0  0  0  0  0  0
    0.9150   47.1730   68.3620 C   0  0  0  0  0  3  0  0  0  0  0  0
    1.9670   46.7610   69.1820 C   0  0  0  0  0  3  0  0  0  0  0  0
    2.0360   47.2150   70.4920 C   0  0  0  0  0  0  0  0  0  0  0  0
    3.3280   46.7020   71.5030 Cl  0  0  0  0  0  0  0  0  0  0  0  0
    1.0620   48.0740   70.9920 C   0  0  0  0  0  3  0  0  0  0  0  0
   -0.0100   48.4580   70.1800 C   0  0  0  0  0  0  0  0  0  0  0  0
   -1.2070   49.4850   70.8880 Cl  0  0  0  0  0  0  0  0  0  0  0  0
  1 17  1  1  0  0  0
  2  1  1  0  0  0  0
  2  3  1  0  0  0  0
  4 11  1  1  0  0  0
  4  3  1  0  0  0  0
  5  6  1  6  0  0  0
  5 10  1  0  0  0  0
  5  4  1  0  0  0  0
  7  6  2  0  0  0  0
  7  9  1  0  0  0  0
  8  7  1  0  0  0  0
  9 10  1  0  0  0  0
 10 15  1  0  0  0  0
 12 11  1  0  0  0  0
 12  1  1  0  0  0  0
 13  8  1  0  0  0  0
 14  8  1  0  0  0  0
 16 17  1  0  0  0  0
 17 18  1  0  0  0  0
 18 19  1  0  0  0  0
 19 20  1  0  0  0  0
 20 26  1  0  0  0  0
 21 20  2  0  0  0  0
 21 22  1  0  0  0  0
 22 23  2  0  0  0  0
 23 25  1  0  0  0  0
 23 24  1  0  0  0  0
 26 27  1  0  0  0  0
 26 25  2  0  0  0  0
M  END
>  <MODEL>
1

>  <REMARK>
 VINA RESULT:      -8.3      0.000      0.000
  Name = CHEMBL4084148-2025
  5 active torsions:
  status: ('A' for Active; 'I' for Inactive)
    1  A    between atoms: C_1  and  N_2
    2  A    between atoms: N_2  and  C_3
    3  A    between atoms: N_2  and  C_13
    4  A    between atoms: C_3  and  C_4
    5  A    between atoms: C_4  and  C_5
                            x       y       z     vdW  Elec       q    Type
                         _______ _______ _______ _____ _____    ______ ____

>  <TORSDO>
F 4

>  <rfscore_v2>
7.249143437617935

>  <vina_affinity>
-7.825630942223605

>  <vina_gauss1>
102.68008272238406

>  <vina_gauss2>
1186.939142192046

>  <vina_repulsion>
1.3708971593856452

>  <vina_hydrophobic>
41.007035186167656

>  <vina_hydrogen>
0.0797576712872905

>  <vina_intra_gauss1>
26.649837473018984

>  <vina_intra_gauss2>
179.67488705054984

>  <vina_intra_repulsion>
0.4748296368839813

>  <vina_intra_hydrophobic>
9.952917619441005

>  <vina_intra_hydrogen>
0.0

>  <vina_num_rotors>
5.0

>  <rfscore_v3>
7.379620230491729

>  <PLEClinear_p5_l1_s65536>
4.620683947443832

>  <nnscore>
7.611119887166683

$$$$
CHEMBL4084148-2025
 OpenBabel12202021063D

 27 29  0  0  1  0  0  0  0  0999 V2000
   -1.6220   50.0610   68.7900 C   0  0  2  0  0  3  0  0  0  0  0  0
   -0.3120   49.5450   68.1600 C   0  0  0  0  0  2  0  0  0  0  0  0
    0.0400   48.1310   68.6050 C   0  0  0  0  0  2  0  0  0  0  0  0
    0.1870   48.1090   70.0490 N   0  0  2  0  0  0  0  0  0  0  0  0
    1.2610   47.5660   70.6700 C   0  0  2  0  0  3  0  0  0  0  0  0
    1.6840   47.7530   71.9050 N   0  0  0  0  0  0  0  0  0  0  0  0
    2.8540   47.0590   71.9420 C   0  0  0  0  0  0  0  0  0  0  0  0
    3.5910   47.1180   73.0460 N   0  0  0  0  0  0  0  0  0  0  0  0
    3.1550   46.3660   70.8490 N   0  0  0  0  0  2  0  0  0  0  0  0
    2.1280   46.6990   70.0540 N   0  0  0  0  0  0  0  0  0  0  0  0
   -0.9520   48.6040   70.8200 C   0  0  0  0  0  2  0  0  0  0  0  0
   -1.3650   49.9940   70.3260 C   0  0  0  0  0  2  0  0  0  0  0  0
    3.1270   47.4410   73.8810 H   0  0  0  0  0  0  0  0  0  0  0  0
    4.2850   46.3980   73.1790 H   0  0  0  0  0  0  0  0  0  0  0  0
    2.0720   46.3050   69.1260 H   0  0  0  0  0  0  0  0  0  0  0  0
   -4.0530   50.2620   68.5830 C   0  0  0  0  0  1  0  0  0  0  0  0
   -2.8820   49.3850   68.3500 N   0  0  0  0  0  0  0  0  0  0  0  0
   -2.9420   48.9940   66.9100 C   0  0  0  0  0  3  0  0  0  0  0  0
   -3.2280   47.5270   66.5030 C   0  0  0  0  0  3  0  0  0  0  0  0
   -3.7780   46.5850   67.5580 C   0  0  0  0  0  0  0  0  0  0  0  0
   -2.9780   46.1510   68.6310 C   0  0  0  0  0  3  0  0  0  0  0  0
   -3.4390   45.1990   69.5420 C   0  0  0  0  0  3  0  0  0  0  0  0
   -4.7340   44.7110   69.4300 C   0  0  0  0  0  0  0  0  0  0  0  0
   -5.2990   43.5340   70.5480 Cl  0  0  0  0  0  0  0  0  0  0  0  0
   -5.5710   45.1630   68.4140 C   0  0  0  0  0  3  0  0  0  0  0  0
   -5.0960   46.0910   67.4820 C   0  0  0  0  0  0  0  0  0  0  0  0
   -6.1780   46.5650   66.2200 Cl  0  0  0  0  0  0  0  0  0  0  0  0
  1 17  1  1  0  0  0
  1 12  1  0  0  0  0
  2  3  1  0  0  0  0
  2  1  1  0  0  0  0
  4  3  1  6  0  0  0
  4  5  1  0  0  0  0
  4 11  1  0  0  0  0
  5  6  1  6  0  0  0
  6  7  2  0  0  0  0
  7  8  1  0  0  0  0
  8 14  1  0  0  0  0
  8 13  1  0  0  0  0
  9  7  1  0  0  0  0
 10  5  1  0  0  0  0
 10  9  1  0  0  0  0
 12 11  1  0  0  0  0
 15 10  1  0  0  0  0
 17 16  1  0  0  0  0
 18 17  1  0  0  0  0
 19 18  2  0  0  0  0
 19 20  1  0  0  0  0
 20 21  1  0  0  0  0
 21 22  2  0  0  0  0
 23 22  1  0  0  0  0
 23 24  1  0  0  0  0
 25 23  2  0  0  0  0
 26 20  2  0  0  0  0
 26 25  1  0  0  0  0
 27 26  1  0  0  0  0
M  END
>  <MODEL>
2

>  <REMARK>
 VINA RESULT:      -8.3      5.324      6.923
  Name = CHEMBL4084148-2025
  5 active torsions:
  status: ('A' for Active; 'I' for Inactive)
    1  A    between atoms: C_1  and  N_2
    2  A    between atoms: N_2  and  C_3
    3  A    between atoms: N_2  and  C_13
    4  A    between atoms: C_3  and  C_4
    5  A    between atoms: C_4  and  C_5
                            x       y       z     vdW  Elec       q    Type
                         _______ _______ _______ _____ _____    ______ ____

>  <TORSDO>
F 4

>  <rfscore_v2>
7.26389045526695

>  <vina_affinity>
-7.672465451212233

>  <vina_gauss1>
103.24108241186924

>  <vina_gauss2>
1214.2068824517648

>  <vina_repulsion>
2.667687542647019

>  <vina_hydrophobic>
39.15860918149383

>  <vina_hydrogen>
0.6703963765507768

>  <vina_intra_gauss1>
31.336958940767694

>  <vina_intra_gauss2>
186.81759195426844

>  <vina_intra_repulsion>
0.620189388060294

>  <vina_intra_hydrophobic>
11.000453123728148

>  <vina_intra_hydrogen>
0.0

>  <vina_num_rotors>
4.0

>  <rfscore_v3>
7.472762643967146

>  <PLEClinear_p5_l1_s65536>
2.8369848386159946

>  <nnscore>
7.436829118602925

$$$$
CHEMBL4084148-2025
 OpenBabel12202021063D

 27 29  0  0  1  0  0  0  0  0999 V2000
   -3.5300   47.6690   68.2470 C   0  0  2  0  0  3  0  0  0  0  0  0
   -2.9160   46.7050   69.2840 C   0  0  0  0  0  2  0  0  0  0  0  0
   -3.3810   45.2660   69.1000 C   0  0  0  0  0  2  0  0  0  0  0  0
   -4.8260   45.2130   69.2270 N   0  0  2  0  0  0  0  0  0  0  0  0
   -5.4600   44.3270   70.0310 C   0  0  2  0  0  3  0  0  0  0  0  0
   -6.6960   44.3660   70.4910 N   0  0  0  0  0  0  0  0  0  0  0  0
   -6.7510   43.2970   71.3310 C   0  0  0  0  0  0  0  0  0  0  0  0
   -7.8580   43.1010   72.0370 N   0  0  0  0  0  0  0  0  0  0  0  0
   -5.6680   42.5260   71.3620 N   0  0  0  0  0  2  0  0  0  0  0  0
   -4.8620   43.1970   70.5270 N   0  0  0  0  0  0  0  0  0  0  0  0
   -5.5830   46.0960   68.3420 C   0  0  0  0  0  2  0  0  0  0  0  0
   -5.0690   47.5350   68.4600 C   0  0  0  0  0  2  0  0  0  0  0  0
   -8.6860   43.5820   71.7200 H   0  0  0  0  0  0  0  0  0  0  0  0
   -8.0050   42.1810   72.4240 H   0  0  0  0  0  0  0  0  0  0  0  0
   -3.9380   42.8360   70.3340 H   0  0  0  0  0  0  0  0  0  0  0  0
   -3.8970   48.3340   65.9200 C   0  0  0  0  0  1  0  0  0  0  0  0
   -3.0900   47.4870   66.8290 N   0  0  0  0  0  0  0  0  0  0  0  0
   -1.6630   47.8220   66.5430 C   0  0  0  0  0  2  0  0  0  0  0  0
   -0.9180   48.8840   67.3890 C   0  0  0  0  0  2  0  0  0  0  0  0
    0.1110   48.4060   68.3970 C   0  0  0  0  0  0  0  0  0  0  0  0
    1.2040   47.6140   67.9960 C   0  0  0  0  0  3  0  0  0  0  0  0
    2.0910   47.0770   68.9300 C   0  0  0  0  0  3  0  0  0  0  0  0
    1.9360   47.3760   70.2770 C   0  0  0  0  0  0  0  0  0  0  0  0
    3.0250   46.7090   71.4270 Cl  0  0  0  0  0  0  0  0  0  0  0  0
    0.8990   48.2030   70.7000 C   0  0  0  0  0  3  0  0  0  0  0  0
   -0.0090   48.7120   69.7660 C   0  0  0  0  0  0  0  0  0  0  0  0
   -1.2990   49.6900   70.3740 Cl  0  0  0  0  0  0  0  0  0  0  0  0
  1 17  1  6  0  0  0
  1 12  1  0  0  0  0
  1  2  1  0  0  0  0
  3  2  1  0  0  0  0
  4  3  1  6  0  0  0
  4 11  1  0  0  0  0
  4  5  1  0  0  0  0
  5  6  1  1  0  0  0
  5 10  1  0  0  0  0
  6  7  2  0  0  0  0
  7  9  1  0  0  0  0
  7  8  1  0  0  0  0
  8 14  1  0  0  0  0
 10  9  1  0  0  0  0
 11 12  1  0  0  0  0
 13  8  1  0  0  0  0
 15 10  1  0  0  0  0
 16 17  1  0  0  0  0
 18 17  1  0  0  0  0
 18 19  1  0  0  0  0
 19 20  1  0  0  0  0
 20 26  1  0  0  0  0
 21 20  2  0  0  0  0
 21 22  1  0  0  0  0
 22 23  2  0  0  0  0
 23 25  1  0  0  0  0
 23 24  1  0  0  0  0
 26 27  1  0  0  0  0
 26 25  2  0  0  0  0
M  END
>  <MODEL>
3

>  <REMARK>
 VINA RESULT:      -8.1      5.317      8.010
  Name = CHEMBL4084148-2025
  5 active torsions:
  status: ('A' for Active; 'I' for Inactive)
    1  A    between atoms: C_1  and  N_2
    2  A    between atoms: N_2  and  C_3
    3  A    between atoms: N_2  and  C_13
    4  A    between atoms: C_3  and  C_4
    5  A    between atoms: C_4  and  C_5
                            x       y       z     vdW  Elec       q    Type
                         _______ _______ _______ _____ _____    ______ ____

>  <TORSDO>
F 4

>  <rfscore_v2>
7.367626893217885

>  <vina_affinity>
-7.454899814109086

>  <vina_gauss1>
84.47710677328038

>  <vina_gauss2>
1191.825534051039

>  <vina_repulsion>
1.8831993183144466

>  <vina_hydrophobic>
40.061391805861746

>  <vina_hydrogen>
1.1141155500889928

>  <vina_intra_gauss1>
26.881925670005312

>  <vina_intra_gauss2>
166.24422113981632

>  <vina_intra_repulsion>
0.4387874412064443

>  <vina_intra_hydrophobic>
15.551390590170008

>  <vina_intra_hydrogen>
0.0

>  <vina_num_rotors>
5.0

>  <rfscore_v3>
7.521608398728724

>  <PLEClinear_p5_l1_s65536>
3.208425323262665

>  <nnscore>
7.21114721918066

$$$$
CHEMBL4084148-2025
 OpenBabel12202021063D

 27 29  0  0  1  0  0  0  0  0999 V2000
   -1.3690   49.7960   68.3230 C   0  0  2  0  0  3  0  0  0  0  0  0
    0.0560   49.3940   67.8910 C   0  0  0  0  0  2  0  0  0  0  0  0
    0.4540   48.0080   68.3830 C   0  0  0  0  0  2  0  0  0  0  0  0
    0.3910   47.9810   69.8330 N   0  0  2  0  0  0  0  0  0  0  0  0
    1.4050   47.5190   70.6030 C   0  0  2  0  0  3  0  0  0  0  0  0
    1.6280   47.7250   71.8860 N   0  0  0  0  0  0  0  0  0  0  0  0
    2.8320   47.1270   72.0940 C   0  0  0  0  0  0  0  0  0  0  0  0
    3.3940   47.2320   73.2930 N   0  0  0  0  0  0  0  0  0  0  0  0
    3.3430   46.4720   71.0560 N   0  0  0  0  0  2  0  0  0  0  0  0
    2.4190   46.7310   70.1200 N   0  0  0  0  0  0  0  0  0  0  0  0
   -0.8840   48.3740   70.4300 C   0  0  0  0  0  2  0  0  0  0  0  0
   -1.3320   49.7320   69.8800 C   0  0  0  0  0  2  0  0  0  0  0  0
    2.7890   47.5080   74.0520 H   0  0  0  0  0  0  0  0  0  0  0  0
    4.1180   46.5690   73.5260 H   0  0  0  0  0  0  0  0  0  0  0  0
    2.5290   46.3440   69.1940 H   0  0  0  0  0  0  0  0  0  0  0  0
   -2.0330   48.3200   66.4860 C   0  0  0  0  0  1  0  0  0  0  0  0
   -2.4930   49.0260   67.7050 N   0  0  0  0  0  0  0  0  0  0  0  0
   -3.1210   47.9830   68.5710 C   0  0  0  0  0  3  0  0  0  0  0  0
   -3.0450   46.4860   68.1810 C   0  0  0  0  0  3  0  0  0  0  0  0
   -3.9490   45.5080   68.9090 C   0  0  0  0  0  0  0  0  0  0  0  0
   -5.2630   45.2690   68.4660 C   0  0  0  0  0  3  0  0  0  0  0  0
   -6.1370   44.4590   69.1910 C   0  0  0  0  0  3  0  0  0  0  0  0
   -5.6900   43.8230   70.3420 C   0  0  0  0  0  0  0  0  0  0  0  0
   -6.7690   42.8310   71.2390 Cl  0  0  0  0  0  0  0  0  0  0  0  0
   -4.3790   43.9930   70.7750 C   0  0  0  0  0  3  0  0  0  0  0  0
   -3.5150   44.8320   70.0650 C   0  0  0  0  0  0  0  0  0  0  0  0
   -1.9170   45.0320   70.6950 Cl  0  0  0  0  0  0  0  0  0  0  0  0
  1 17  1  6  0  0  0
  1 12  1  0  0  0  0
  2  1  1  0  0  0  0
  2  3  1  0  0  0  0
  4  3  1  6  0  0  0
  4 11  1  0  0  0  0
  4  5  1  0  0  0  0
  5  6  1  6  0  0  0
  6  7  2  0  0  0  0
  7  8  1  0  0  0  0
  8 14  1  0  0  0  0
  8 13  1  0  0  0  0
  9  7  1  0  0  0  0
 10  5  1  0  0  0  0
 10  9  1  0  0  0  0
 12 11  1  0  0  0  0
 15 10  1  0  0  0  0
 16 17  1  0  0  0  0
 17 18  1  0  0  0  0
 19 18  2  0  0  0  0
 19 20  1  0  0  0  0
 20 26  1  0  0  0  0
 21 20  2  0  0  0  0
 21 22  1  0  0  0  0
 22 23  2  0  0  0  0
 23 25  1  0  0  0  0
 23 24  1  0  0  0  0
 26 27  1  0  0  0  0
 26 25  2  0  0  0  0
M  END
>  <MODEL>
4

>  <REMARK>
 VINA RESULT:      -8.0      4.796      7.036
  Name = CHEMBL4084148-2025
  5 active torsions:
  status: ('A' for Active; 'I' for Inactive)
    1  A    between atoms: C_1  and  N_2
    2  A    between atoms: N_2  and  C_3
    3  A    between atoms: N_2  and  C_13
    4  A    between atoms: C_3  and  C_4
    5  A    between atoms: C_4  and  C_5
                            x       y       z     vdW  Elec       q    Type
                         _______ _______ _______ _____ _____    ______ ____

>  <TORSDO>
F 4

>  <rfscore_v2>
7.4027260735930716

>  <vina_affinity>
-8.17347651482371

>  <vina_gauss1>
93.83754161089898

>  <vina_gauss2>
1293.9334597385055

>  <vina_repulsion>
2.448186589699695

>  <vina_hydrophobic>
37.91399816022732

>  <vina_hydrogen>
1.3534110487521853

>  <vina_intra_gauss1>
29.56520717193859

>  <vina_intra_gauss2>
182.9089103817825

>  <vina_intra_repulsion>
2.5773712132012547

>  <vina_intra_hydrophobic>
7.963413395215898

>  <vina_intra_hydrogen>
0.0

>  <vina_num_rotors>
4.0

>  <rfscore_v3>
7.6668861273726305

>  <PLEClinear_p5_l1_s65536>
3.368189864328935

>  <nnscore>
7.663796774672321

$$$$
CHEMBL4084148-2025
 OpenBabel12202021063D

 27 29  0  0  1  0  0  0  0  0999 V2000
   -2.3450   47.4500   69.2300 C   0  0  2  0  0  3  0  0  0  0  0  0
   -2.7810   47.9840   67.8500 C   0  0  0  0  0  2  0  0  0  0  0  0
   -1.6030   48.4030   66.9800 C   0  0  0  0  0  2  0  0  0  0  0  0
   -0.8550   49.4460   67.6590 N   0  0  2  0  0  0  0  0  0  0  0  0
   -0.5050   50.6080   67.0580 C   0  0  2  0  0  3  0  0  0  0  0  0
   -0.1310   51.7450   67.6120 N   0  0  0  0  0  0  0  0  0  0  0  0
   -0.0180   52.5880   66.5500 C   0  0  0  0  0  0  0  0  0  0  0  0
    0.2650   53.8650   66.7810 N   0  0  0  0  0  0  0  0  0  0  0  0
   -0.2000   52.0410   65.3520 N   0  0  0  0  0  2  0  0  0  0  0  0
   -0.5050   50.7830   65.6970 N   0  0  0  0  0  0  0  0  0  0  0  0
   -0.3900   49.1310   69.0080 C   0  0  0  0  0  2  0  0  0  0  0  0
   -1.5550   48.6320   69.8690 C   0  0  0  0  0  2  0  0  0  0  0  0
    0.6460   54.0850   67.6890 H   0  0  0  0  0  0  0  0  0  0  0  0
    0.6240   54.4070   66.0100 H   0  0  0  0  0  0  0  0  0  0  0  0
   -0.6910   50.1010   64.9750 H   0  0  0  0  0  0  0  0  0  0  0  0
   -0.6860   46.0750   70.3920 C   0  0  0  0  0  1  0  0  0  0  0  0
   -1.6100   46.1470   69.2350 N   0  0  0  0  0  0  0  0  0  0  0  0
   -2.4590   44.9210   69.3110 C   0  0  0  0  0  2  0  0  0  0  0  0
   -3.8070   44.9420   70.0740 C   0  0  0  0  0  2  0  0  0  0  0  0
   -5.0860   44.7820   69.2740 C   0  0  0  0  0  0  0  0  0  0  0  0
   -5.3000   45.5150   68.0930 C   0  0  0  0  0  3  0  0  0  0  0  0
   -6.5170   45.4570   67.4130 C   0  0  0  0  0  3  0  0  0  0  0  0
   -7.5210   44.6150   67.8710 C   0  0  0  0  0  0  0  0  0  0  0  0
   -9.0220   44.5490   67.0360 Cl  0  0  0  0  0  0  0  0  0  0  0  0
   -7.3210   43.8330   69.0040 C   0  0  0  0  0  3  0  0  0  0  0  0
   -6.1130   43.9170   69.7030 C   0  0  0  0  0  0  0  0  0  0  0  0
   -5.9590   42.9520   71.1300 Cl  0  0  0  0  0  0  0  0  0  0  0  0
  1 17  1  6  0  0  0
  1 12  1  0  0  0  0
  2  1  1  0  0  0  0
  3  2  1  0  0  0  0
  4  3  1  6  0  0  0
  4 11  1  0  0  0  0
  5  6  1  1  0  0  0
  5  4  1  0  0  0  0
  7  8  1  0  0  0  0
  7  6  2  0  0  0  0
  8 13  1  0  0  0  0
  9 10  1  0  0  0  0
  9  7  1  0  0  0  0
 10  5  1  0  0  0  0
 11 12  1  0  0  0  0
 14  8  1  0  0  0  0
 15 10  1  0  0  0  0
 17 18  1  0  0  0  0
 17 16  1  0  0  0  0
 18 19  1  0  0  0  0
 20 26  1  0  0  0  0
 20 19  1  0  0  0  0
 21 20  2  0  0  0  0
 22 23  2  0  0  0  0
 22 21  1  0  0  0  0
 23 25  1  0  0  0  0
 24 23  1  0  0  0  0
 25 26  2  0  0  0  0
 26 27  1  0  0  0  0
M  END
>  <MODEL>
5

>  <REMARK>
 VINA RESULT:      -7.8      4.967      7.436
  Name = CHEMBL4084148-2025
  5 active torsions:
  status: ('A' for Active; 'I' for Inactive)
    1  A    between atoms: C_1  and  N_2
    2  A    between atoms: N_2  and  C_3
    3  A    between atoms: N_2  and  C_13
    4  A    between atoms: C_3  and  C_4
    5  A    between atoms: C_4  and  C_5
                            x       y       z     vdW  Elec       q    Type
                         _______ _______ _______ _____ _____    ______ ____

>  <TORSDO>
F 4

>  <rfscore_v2>
7.137701858585852

>  <vina_affinity>
-6.950929504513312

>  <vina_gauss1>
76.34562937861092

>  <vina_gauss2>
1130.9094860289053

>  <vina_repulsion>
1.751769582379083

>  <vina_hydrophobic>
41.826394669017816

>  <vina_hydrogen>
0.7394531978052171

>  <vina_intra_gauss1>
22.226257843001523

>  <vina_intra_gauss2>
148.78451703245838

>  <vina_intra_repulsion>
0.5293529137048234

>  <vina_intra_hydrophobic>
12.492469661676893

>  <vina_intra_hydrogen>
0.0

>  <vina_num_rotors>
5.0

>  <rfscore_v3>
7.035015638266969

>  <PLEClinear_p5_l1_s65536>
2.6033507585144564

>  <nnscore>
7.039795711042362

$$$$
CHEMBL4084148-2025
 OpenBabel12202021063D

 27 29  0  0  1  0  0  0  0  0999 V2000
   -5.8010   48.7850   66.9700 C   0  0  2  0  0  3  0  0  0  0  0  0
   -5.1650   48.7430   68.3750 C   0  0  0  0  0  2  0  0  0  0  0  0
   -4.1650   47.6060   68.5360 C   0  0  0  0  0  2  0  0  0  0  0  0
   -4.8380   46.3410   68.3000 N   0  0  2  0  0  0  0  0  0  0  0  0
   -4.7480   45.2910   69.1510 C   0  0  2  0  0  3  0  0  0  0  0  0
   -5.5300   44.2340   69.2450 N   0  0  0  0  0  0  0  0  0  0  0  0
   -5.0420   43.5800   70.3330 C   0  0  0  0  0  0  0  0  0  0  0  0
   -5.6770   42.4930   70.7590 N   0  0  0  0  0  0  0  0  0  0  0  0
   -3.9430   44.0950   70.8770 N   0  0  0  0  0  2  0  0  0  0  0  0
   -3.7720   45.1800   70.1090 N   0  0  0  0  0  0  0  0  0  0  0  0
   -5.5370   46.2120   67.0230 C   0  0  0  0  0  2  0  0  0  0  0  0
   -6.4880   47.3950   66.8150 C   0  0  0  0  0  2  0  0  0  0  0  0
   -6.3140   42.0600   70.1080 H   0  0  0  0  0  0  0  0  0  0  0  0
   -5.1690   41.8650   71.3620 H   0  0  0  0  0  0  0  0  0  0  0  0
   -2.9840   45.7880   70.2790 H   0  0  0  0  0  0  0  0  0  0  0  0
   -5.5640   48.9310   64.5380 C   0  0  0  0  0  1  0  0  0  0  0  0
   -4.8900   49.1480   65.8400 N   0  0  0  0  0  0  0  0  0  0  0  0
   -4.4060   50.5610   65.8210 C   0  0  0  0  0  2  0  0  0  0  0  0
   -2.8920   50.8750   65.9100 C   0  0  0  0  0  2  0  0  0  0  0  0
   -2.1310   50.4020   67.1350 C   0  0  0  0  0  0  0  0  0  0  0  0
   -1.2550   49.3030   67.0640 C   0  0  0  0  0  3  0  0  0  0  0  0
   -0.6380   48.7920   68.2070 C   0  0  0  0  0  3  0  0  0  0  0  0
   -0.8400   49.4120   69.4320 C   0  0  0  0  0  0  0  0  0  0  0  0
   -0.0860   48.7770   70.8400 Cl  0  0  0  0  0  0  0  0  0  0  0  0
   -1.6560   50.5350   69.5270 C   0  0  0  0  0  3  0  0  0  0  0  0
   -2.3000   51.0250   68.3870 C   0  0  0  0  0  0  0  0  0  0  0  0
   -3.3370   52.3930   68.5940 Cl  0  0  0  0  0  0  0  0  0  0  0  0
  1 17  1  6  0  0  0
  1  2  1  0  0  0  0
  2  3  1  0  0  0  0
  4 11  1  6  0  0  0
  4  3  1  0  0  0  0
  4  5  1  0  0  0  0
  5  6  1  1  0  0  0
  5 10  1  0  0  0  0
  6  7  2  0  0  0  0
  7  8  1  0  0  0  0
  7  9  1  0  0  0  0
  8 14  1  0  0  0  0
 10 15  1  0  0  0  0
 10  9  1  0  0  0  0
 12  1  1  0  0  0  0
 12 11  1  0  0  0  0
 13  8  1  0  0  0  0
 16 17  1  0  0  0  0
 18 17  1  0  0  0  0
 18 19  1  0  0  0  0
 19 20  1  0  0  0  0
 20 26  1  0  0  0  0
 21 20  2  0  0  0  0
 21 22  1  0  0  0  0
 22 23  2  0  0  0  0
 23 25  1  0  0  0  0
 23 24  1  0  0  0  0
 26 27  1  0  0  0  0
 26 25  2  0  0  0  0
M  END
>  <MODEL>
6

>  <REMARK>
 VINA RESULT:      -7.7      5.455      7.686
  Name = CHEMBL4084148-2025
  5 active torsions:
  status: ('A' for Active; 'I' for Inactive)
    1  A    between atoms: C_1  and  N_2
    2  A    between atoms: N_2  and  C_3
    3  A    between atoms: N_2  and  C_13
    4  A    between atoms: C_3  and  C_4
    5  A    between atoms: C_4  and  C_5
                            x       y       z     vdW  Elec       q    Type
                         _______ _______ _______ _____ _____    ______ ____

>  <TORSDO>
F 4

>  <rfscore_v2>
7.051285462981457

>  <vina_affinity>
-6.586326090344095

>  <vina_gauss1>
63.44774430710379

>  <vina_gauss2>
1129.107841145295

>  <vina_repulsion>
0.797867317758051

>  <vina_hydrophobic>
24.233986145444394

>  <vina_hydrogen>
0.42161149461464087

>  <vina_intra_gauss1>
40.693563146125584

>  <vina_intra_gauss2>
197.08449733184955

>  <vina_intra_repulsion>
0.2324842994998044

>  <vina_intra_hydrophobic>
14.668603716128928

>  <vina_intra_hydrogen>
0.0

>  <vina_num_rotors>
5.0

>  <rfscore_v3>
7.227839340342663

>  <PLEClinear_p5_l1_s65536>
2.5955945115698347

>  <nnscore>
6.078850754995047

$$$$
CHEMBL4084148-2025
 OpenBabel12202021063D

 27 29  0  0  1  0  0  0  0  0999 V2000
   -2.4900   49.0610   67.2120 C   0  0  2  0  0  3  0  0  0  0  0  0
   -1.5900   48.5790   68.3680 C   0  0  0  0  0  2  0  0  0  0  0  0
   -1.4090   47.0660   68.3840 C   0  0  0  0  0  2  0  0  0  0  0  0
   -2.7080   46.4320   68.5200 N   0  0  2  0  0  0  0  0  0  0  0  0
   -2.9620   45.4710   69.4400 C   0  0  2  0  0  3  0  0  0  0  0  0
   -4.1270   45.0490   69.8930 N   0  0  0  0  0  0  0  0  0  0  0  0
   -3.7810   44.1690   70.8710 C   0  0  0  0  0  0  0  0  0  0  0  0
   -4.7450   43.6190   71.6010 N   0  0  0  0  0  0  0  0  0  0  0  0
   -2.4800   43.9290   71.0040 N   0  0  0  0  0  2  0  0  0  0  0  0
   -1.9780   44.7640   70.0840 N   0  0  0  0  0  0  0  0  0  0  0  0
   -3.7130   46.8020   67.5260 C   0  0  0  0  0  2  0  0  0  0  0  0
   -3.8450   48.3270   67.4460 C   0  0  0  0  0  2  0  0  0  0  0  0
   -5.6790   43.6680   71.2230 H   0  0  0  0  0  0  0  0  0  0  0  0
   -4.5200   42.7780   72.1100 H   0  0  0  0  0  0  0  0  0  0  0  0
   -0.9790   44.8000   69.9380 H   0  0  0  0  0  0  0  0  0  0  0  0
   -2.5560   49.8840   64.9080 C   0  0  0  0  0  1  0  0  0  0  0  0
   -1.9380   48.9040   65.8310 N   0  0  0  0  0  0  0  0  0  0  0  0
   -0.4620   49.0860   65.6950 C   0  0  0  0  0  2  0  0  0  0  0  0
    0.1140   50.2000   64.7850 C   0  0  0  0  0  2  0  0  0  0  0  0
    1.2200   49.8310   63.8130 C   0  0  0  0  0  0  0  0  0  0  0  0
    1.9880   48.6670   63.9960 C   0  0  0  0  0  3  0  0  0  0  0  0
    3.0770   48.3790   63.1730 C   0  0  0  0  0  3  0  0  0  0  0  0
    3.3790   49.2220   62.1130 C   0  0  0  0  0  0  0  0  0  0  0  0
    4.7260   48.8710   61.1040 Cl  0  0  0  0  0  0  0  0  0  0  0  0
    2.6040   50.3520   61.8690 C   0  0  0  0  0  3  0  0  0  0  0  0
    1.5340   50.6570   62.7150 C   0  0  0  0  0  0  0  0  0  0  0  0
    0.6500   52.1040   62.3790 Cl  0  0  0  0  0  0  0  0  0  0  0  0
  1 17  1  6  0  0  0
  1 12  1  0  0  0  0
  1  2  1  0  0  0  0
  2  3  1  0  0  0  0
  4  3  1  6  0  0  0
  4 11  1  0  0  0  0
  4  5  1  0  0  0  0
  5  6  1  1  0  0  0
  5 10  1  0  0  0  0
  6  7  2  0  0  0  0
  7  9  1  0  0  0  0
  7  8  1  0  0  0  0
  8 14  1  0  0  0  0
 10  9  1  0  0  0  0
 12 11  1  0  0  0  0
 13  8  1  0  0  0  0
 15 10  1  0  0  0  0
 16 17  1  0  0  0  0
 18 17  1  0  0  0  0
 19 18  1  0  0  0  0
 20 21  1  0  0  0  0
 20 19  1  0  0  0  0
 22 21  2  0  0  0  0
 23 22  1  0  0  0  0
 24 23  1  0  0  0  0
 25 23  2  0  0  0  0
 25 26  1  0  0  0  0
 26 20  2  0  0  0  0
 27 26  1  0  0  0  0
M  END
>  <MODEL>
7

>  <REMARK>
 VINA RESULT:      -7.7      4.835      7.958
  Name = CHEMBL4084148-2025
  5 active torsions:
  status: ('A' for Active; 'I' for Inactive)
    1  A    between atoms: C_1  and  N_2
    2  A    between atoms: N_2  and  C_3
    3  A    between atoms: N_2  and  C_13
    4  A    between atoms: C_3  and  C_4
    5  A    between atoms: C_4  and  C_5
                            x       y       z     vdW  Elec       q    Type
                         _______ _______ _______ _____ _____    ______ ____

>  <TORSDO>
F 4

>  <rfscore_v2>
6.5488424286824225

>  <vina_affinity>
-7.250258679704636

>  <vina_gauss1>
70.11294973187611

>  <vina_gauss2>
1136.4601188676324

>  <vina_repulsion>
1.0590157558734725

>  <vina_hydrophobic>
34.50089408896555

>  <vina_hydrogen>
1.174439475498289

>  <vina_intra_gauss1>
14.43678791257698

>  <vina_intra_gauss2>
130.1221240177196

>  <vina_intra_repulsion>
0.18729005816879568

>  <vina_intra_hydrophobic>
5.051165523125368

>  <vina_intra_hydrogen>
0.0

>  <vina_num_rotors>
5.0

>  <rfscore_v3>
6.820781076661908

>  <PLEClinear_p5_l1_s65536>
2.79377730650128

>  <nnscore>
6.738097435256225

$$$$
CHEMBL4084148-2025
 OpenBabel12202021063D

 27 29  0  0  1  0  0  0  0  0999 V2000
   -4.4440   49.0320   67.1230 C   0  0  2  0  0  3  0  0  0  0  0  0
   -3.9820   48.6590   68.5470 C   0  0  0  0  0  2  0  0  0  0  0  0
   -3.4180   47.2470   68.6340 C   0  0  0  0  0  2  0  0  0  0  0  0
   -4.4390   46.3000   68.2220 N   0  0  2  0  0  0  0  0  0  0  0  0
   -4.7650   45.2080   68.9530 C   0  0  2  0  0  3  0  0  0  0  0  0
   -5.8510   44.4620   68.8850 N   0  0  0  0  0  0  0  0  0  0  0  0
   -5.6960   43.5900   69.9170 C   0  0  0  0  0  0  0  0  0  0  0  0
   -6.6810   42.7400   70.1840 N   0  0  0  0  0  0  0  0  0  0  0  0
   -4.5430   43.6660   70.5750 N   0  0  0  0  0  2  0  0  0  0  0  0
   -3.9650   44.6980   69.9450 N   0  0  0  0  0  0  0  0  0  0  0  0
   -5.0260   46.5200   66.9020 C   0  0  0  0  0  2  0  0  0  0  0  0
   -5.5250   47.9630   66.7760 C   0  0  0  0  0  2  0  0  0  0  0  0
   -7.3640   42.5990   69.4540 H   0  0  0  0  0  0  0  0  0  0  0  0
   -6.4570   41.9290   70.7390 H   0  0  0  0  0  0  0  0  0  0  0  0
   -3.0420   44.9960   70.2240 H   0  0  0  0  0  0  0  0  0  0  0  0
   -3.9050   49.8070   64.8640 C   0  0  0  0  0  1  0  0  0  0  0  0
   -3.3690   49.1740   66.0920 N   0  0  0  0  0  0  0  0  0  0  0  0
   -2.1860   49.9920   66.4940 C   0  0  0  0  0  2  0  0  0  0  0  0
   -0.7480   49.4860   66.2170 C   0  0  0  0  0  2  0  0  0  0  0  0
   -0.0090   48.7790   67.3380 C   0  0  0  0  0  0  0  0  0  0  0  0
   -0.3100   49.0460   68.6860 C   0  0  0  0  0  3  0  0  0  0  0  0
    0.4400   48.4850   69.7210 C   0  0  0  0  0  3  0  0  0  0  0  0
    1.4650   47.5980   69.4250 C   0  0  0  0  0  0  0  0  0  0  0  0
    2.3920   46.9130   70.7000 Cl  0  0  0  0  0  0  0  0  0  0  0  0
    1.7510   47.2680   68.1040 C   0  0  0  0  0  3  0  0  0  0  0  0
    1.0210   47.8570   67.0660 C   0  0  0  0  0  0  0  0  0  0  0  0
    1.4690   47.4370   65.4500 Cl  0  0  0  0  0  0  0  0  0  0  0  0
  1 17  1  6  0  0  0
  1  2  1  0  0  0  0
  2  3  1  0  0  0  0
  4 11  1  6  0  0  0
  4  3  1  0  0  0  0
  4  5  1  0  0  0  0
  5  6  1  1  0  0  0
  5 10  1  0  0  0  0
  6  7  2  0  0  0  0
  7  8  1  0  0  0  0
  7  9  1  0  0  0  0
  8 14  1  0  0  0  0
 10 15  1  0  0  0  0
 10  9  1  0  0  0  0
 12 11  1  0  0  0  0
 12  1  1  0  0  0  0
 13  8  1  0  0  0  0
 16 17  1  0  0  0  0
 17 18  1  0  0  0  0
 19 18  1  0  0  0  0
 19 20  1  0  0  0  0
 20 21  1  0  0  0  0
 21 22  2  0  0  0  0
 23 22  1  0  0  0  0
 23 24  1  0  0  0  0
 25 23  2  0  0  0  0
 26 20  2  0  0  0  0
 26 25  1  0  0  0  0
 27 26  1  0  0  0  0
M  END
>  <MODEL>
8

>  <REMARK>
 VINA RESULT:      -7.7      4.788      7.332
  Name = CHEMBL4084148-2025
  5 active torsions:
  status: ('A' for Active; 'I' for Inactive)
    1  A    between atoms: C_1  and  N_2
    2  A    between atoms: N_2  and  C_3
    3  A    between atoms: N_2  and  C_13
    4  A    between atoms: C_3  and  C_4
    5  A    between atoms: C_4  and  C_5
                            x       y       z     vdW  Elec       q    Type
                         _______ _______ _______ _____ _____    ______ ____

>  <TORSDO>
F 4

>  <rfscore_v2>
6.8380991652236585

>  <vina_affinity>
-7.019371107188368

>  <vina_gauss1>
72.92041788922634

>  <vina_gauss2>
1143.541057703941

>  <vina_repulsion>
0.5772524599024899

>  <vina_hydrophobic>
30.221951217956214

>  <vina_hydrogen>
0.0

>  <vina_intra_gauss1>
24.59762924994959

>  <vina_intra_gauss2>
204.3030183638994

>  <vina_intra_repulsion>
0.13226232021029674

>  <vina_intra_hydrophobic>
10.653717127351053

>  <vina_intra_hydrogen>
0.0

>  <vina_num_rotors>
5.0

>  <rfscore_v3>
7.293311731618057

>  <PLEClinear_p5_l1_s65536>
2.815640329286801

>  <nnscore>
6.8514124055221135

$$$$
CHEMBL4084148-2025
 OpenBabel12202021063D

 27 29  0  0  1  0  0  0  0  0999 V2000
   -2.6920   48.8370   66.9300 C   0  0  2  0  0  3  0  0  0  0  0  0
   -2.8550   48.3260   68.3760 C   0  0  0  0  0  2  0  0  0  0  0  0
   -1.8900   48.9900   69.3500 C   0  0  0  0  0  2  0  0  0  0  0  0
   -0.5270   48.7280   68.9230 N   0  0  2  0  0  0  0  0  0  0  0  0
    0.4260   48.2550   69.7600 C   0  0  2  0  0  3  0  0  0  0  0  0
    1.5730   47.6760   69.4640 N   0  0  0  0  0  0  0  0  0  0  0  0
    2.0610   47.3070   70.6790 C   0  0  0  0  0  0  0  0  0  0  0  0
    3.1880   46.6070   70.7250 N   0  0  0  0  0  0  0  0  0  0  0  0
    1.3510   47.6980   71.7330 N   0  0  0  0  0  2  0  0  0  0  0  0
    0.3180   48.3010   71.1280 N   0  0  0  0  0  0  0  0  0  0  0  0
   -0.1960   49.1140   67.5530 C   0  0  0  0  0  2  0  0  0  0  0  0
   -1.2090   48.5160   66.5720 C   0  0  0  0  0  2  0  0  0  0  0  0
    3.7600   46.6180   69.8940 H   0  0  0  0  0  0  0  0  0  0  0  0
    3.6860   46.5860   71.6020 H   0  0  0  0  0  0  0  0  0  0  0  0
   -0.4080   48.7220   71.6880 H   0  0  0  0  0  0  0  0  0  0  0  0
   -2.9110   50.6040   65.2490 C   0  0  0  0  0  1  0  0  0  0  0  0
   -3.0880   50.2580   66.6790 N   0  0  0  0  0  0  0  0  0  0  0  0
   -4.5010   50.6090   67.0140 C   0  0  0  0  0  2  0  0  0  0  0  0
   -5.6790   49.8940   66.3060 C   0  0  0  0  0  2  0  0  0  0  0  0
   -6.1070   48.5330   66.8220 C   0  0  0  0  0  0  0  0  0  0  0  0
   -6.6710   48.3880   68.1030 C   0  0  0  0  0  3  0  0  0  0  0  0
   -6.9630   47.1280   68.6290 C   0  0  0  0  0  3  0  0  0  0  0  0
   -6.7540   45.9950   67.8550 C   0  0  0  0  0  0  0  0  0  0  0  0
   -7.1080   44.4440   68.5060 Cl  0  0  0  0  0  0  0  0  0  0  0  0
   -6.2510   46.1080   66.5630 C   0  0  0  0  0  3  0  0  0  0  0  0
   -5.9270   47.3680   66.0500 C   0  0  0  0  0  0  0  0  0  0  0  0
   -5.2590   47.4230   64.4560 Cl  0  0  0  0  0  0  0  0  0  0  0  0
  1 17  1  1  0  0  0
  1  2  1  0  0  0  0
  2  3  1  0  0  0  0
  4 11  1  1  0  0  0
  4  3  1  0  0  0  0
  4  5  1  0  0  0  0
  5  6  1  6  0  0  0
  5 10  1  0  0  0  0
  6  7  2  0  0  0  0
  7  8  1  0  0  0  0
  7  9  1  0  0  0  0
  8 14  1  0  0  0  0
 10 15  1  0  0  0  0
 10  9  1  0  0  0  0
 12  1  1  0  0  0  0
 12 11  1  0  0  0  0
 13  8  1  0  0  0  0
 16 17  1  0  0  0  0
 17 18  1  0  0  0  0
 19 20  1  0  0  0  0
 19 18  1  0  0  0  0
 20 21  1  0  0  0  0
 21 22  2  0  0  0  0
 23 24  1  0  0  0  0
 23 22  1  0  0  0  0
 25 23  2  0  0  0  0
 26 25  1  0  0  0  0
 26 20  2  0  0  0  0
 27 26  1  0  0  0  0
M  END
>  <MODEL>
9

>  <REMARK>
 VINA RESULT:      -7.6      5.166      7.195
  Name = CHEMBL4084148-2025
  5 active torsions:
  status: ('A' for Active; 'I' for Inactive)
    1  A    between atoms: C_1  and  N_2
    2  A    between atoms: N_2  and  C_3
    3  A    between atoms: N_2  and  C_13
    4  A    between atoms: C_3  and  C_4
    5  A    between atoms: C_4  and  C_5
                            x       y       z     vdW  Elec       q    Type
                         _______ _______ _______ _____ _____    ______ ____

>  <TORSDO>
F 4

>  <rfscore_v2>
7.055009454545455

>  <vina_affinity>
-6.783354309019524

>  <vina_gauss1>
70.11741030295138

>  <vina_gauss2>
1129.6652579739925

>  <vina_repulsion>
1.0703226454706924

>  <vina_hydrophobic>
22.548727388378694

>  <vina_hydrogen>
0.9367011879730037

>  <vina_intra_gauss1>
33.22575211428045

>  <vina_intra_gauss2>
157.6583753232013

>  <vina_intra_repulsion>
0.384621619588983

>  <vina_intra_hydrophobic>
16.46347336182987

>  <vina_intra_hydrogen>
0.0

>  <vina_num_rotors>
5.0

>  <rfscore_v3>
7.013791851054179

>  <PLEClinear_p5_l1_s65536>
2.683041003663149

>  <nnscore>
7.522890411185662

$$$$
