CHEMBL4076989-14.2
 OpenBabel12202021053D

 29 31  0  0  1  0  0  0  0  0999 V2000
   -2.1500   44.8790   70.0630 C   0  0  2  0  0  3  0  0  0  0  0  0
   -3.4840   44.1250   69.8330 C   0  0  0  0  0  2  0  0  0  0  0  0
   -4.5590   44.4730   70.8560 C   0  0  0  0  0  2  0  0  0  0  0  0
   -4.0620   44.2540   72.2100 N   0  0  1  0  0  0  0  0  0  0  0  0
   -4.7190   43.3810   73.0060 C   0  0  2  0  0  3  0  0  0  0  0  0
   -5.6670   42.5310   72.6710 N   0  0  0  0  0  0  0  0  0  0  0  0
   -5.9790   41.9200   73.8390 C   0  0  0  0  0  0  0  0  0  0  0  0
   -6.9300   40.9850   73.8250 N   0  0  0  0  0  0  0  0  0  0  0  0
   -5.3230   42.3510   74.9080 N   0  0  0  0  0  2  0  0  0  0  0  0
   -4.5250   43.2790   74.3570 N   0  0  0  0  0  0  0  0  0  0  0  0
   -2.7940   44.8950   72.5340 C   0  0  0  0  0  2  0  0  0  0  0  0
   -1.7470   44.4530   71.5090 C   0  0  0  0  0  2  0  0  0  0  0  0
   -7.5440   40.9980   73.0230 H   0  0  0  0  0  0  0  0  0  0  0  0
   -7.3840   40.7980   74.7090 H   0  0  0  0  0  0  0  0  0  0  0  0
   -3.9130   43.8270   74.9470 H   0  0  0  0  0  0  0  0  0  0  0  0
   -2.1160   46.3760   69.8420 N   0  0  0  0  0  0  0  0  0  0  0  0
   -0.6830   46.8120   69.6980 C   0  0  0  0  0  2  0  0  0  0  0  0
    1.5890   47.5360   70.6590 C   0  0  0  0  0  1  0  0  0  0  0  0
    0.0770   47.4940   70.8730 C   0  0  0  0  0  3  0  0  0  0  0  0
   -0.4180   48.9460   71.0200 C   0  0  0  0  0  1  0  0  0  0  0  0
   -2.8730   46.8250   68.6340 C   0  0  0  0  0  2  0  0  0  0  0  0
   -2.2980   47.8580   67.6200 C   0  0  0  0  0  2  0  0  0  0  0  0
   -2.2940   49.3290   67.9830 C   0  0  0  0  0  0  0  0  0  0  0  0
   -3.3580   49.9290   68.6690 C   0  0  0  0  0  3  0  0  0  0  0  0
   -3.3590   51.2970   68.9490 C   0  0  0  0  0  3  0  0  0  0  0  0
   -2.2700   52.0780   68.5760 C   0  0  0  0  0  0  0  0  0  0  0  0
   -2.2670   53.7610   68.9320 Cl  0  0  0  0  0  0  0  0  0  0  0  0
   -1.1870   51.5000   67.9190 C   0  0  0  0  0  3  0  0  0  0  0  0
   -1.1980   50.1310   67.6250 C   0  0  0  0  0  3  0  0  0  0  0  0
  1 16  1  1  0  0  0
  1 12  1  0  0  0  0
  2  1  1  0  0  0  0
  2  3  1  0  0  0  0
  4  3  1  6  0  0  0
  4 11  1  0  0  0  0
  4  5  1  0  0  0  0
  5  6  1  1  0  0  0
  5 10  1  0  0  0  0
  6  7  2  0  0  0  0
  7  9  1  0  0  0  0
  8  7  1  0  0  0  0
  8 14  1  0  0  0  0
 10  9  1  0  0  0  0
 10 15  1  0  0  0  0
 12 11  1  0  0  0  0
 13  8  1  0  0  0  0
 17 16  1  0  0  0  0
 17 19  1  0  0  0  0
 18 19  1  0  0  0  0
 19 20  1  0  0  0  0
 21 16  1  0  0  0  0
 22 23  1  0  0  0  0
 22 21  1  0  0  0  0
 23 24  1  0  0  0  0
 24 25  2  0  0  0  0
 26 27  1  0  0  0  0
 26 25  1  0  0  0  0
 28 26  2  0  0  0  0
 29 28  1  0  0  0  0
 29 23  2  0  0  0  0
M  END
>  <MODEL>
1

>  <REMARK>
 VINA RESULT:      -8.6      0.000      0.000
  Name = CHEMBL4076989-14.2
  8 active torsions:
  status: ('A' for Active; 'I' for Inactive)
    1  A    between atoms: C_1  and  C_2
    2  A    between atoms: C_2  and  C_3
    3  A    between atoms: C_2  and  C_4
    4  A    between atoms: C_4  and  N_5
    5  A    between atoms: N_5  and  C_6
    6  A    between atoms: N_5  and  C_15
    7  A    between atoms: C_6  and  C_7
    8  A    between atoms: C_7  and  C_8
                            x       y       z     vdW  Elec       q    Type
                         _______ _______ _______ _____ _____    ______ ____

>  <TORSDO>
F 6

>  <rfscore_v2>
7.477923236652242

>  <vina_affinity>
-8.333443658205164

>  <vina_gauss1>
97.74135445626018

>  <vina_gauss2>
1463.9711530868724

>  <vina_repulsion>
2.1485174507830895

>  <vina_hydrophobic>
49.29721256261469

>  <vina_hydrogen>
0.5097470381159663

>  <vina_intra_gauss1>
37.12717196429067

>  <vina_intra_gauss2>
180.01388039885933

>  <vina_intra_repulsion>
0.4921348472404483

>  <vina_intra_hydrophobic>
29.613825583125188

>  <vina_intra_hydrogen>
0.0

>  <vina_num_rotors>
6.0

>  <rfscore_v3>
7.314624225718727

>  <PLEClinear_p5_l1_s65536>
3.028719892029855

>  <nnscore>
6.684222516784658

$$$$
CHEMBL4076989-14.2
 OpenBabel12202021053D

 29 31  0  0  1  0  0  0  0  0999 V2000
    0.3020   49.2580   67.1350 C   0  0  2  0  0  3  0  0  0  0  0  0
   -0.2680   50.3490   66.1930 C   0  0  0  0  0  2  0  0  0  0  0  0
   -0.3660   49.9010   64.7400 C   0  0  0  0  0  2  0  0  0  0  0  0
    0.9300   49.4280   64.2660 N   0  0  1  0  0  0  0  0  0  0  0  0
    1.4920   50.0430   63.2010 C   0  0  2  0  0  3  0  0  0  0  0  0
    1.1190   51.1630   62.6200 N   0  0  0  0  0  0  0  0  0  0  0  0
    2.0080   51.3120   61.6080 C   0  0  0  0  0  0  0  0  0  0  0  0
    1.8880   52.3800   60.8180 N   0  0  0  0  0  0  0  0  0  0  0  0
    2.9000   50.3400   61.4770 N   0  0  0  0  0  2  0  0  0  0  0  0
    2.5570   49.5420   62.5000 N   0  0  0  0  0  0  0  0  0  0  0  0
    1.5780   48.4150   65.0900 C   0  0  0  0  0  2  0  0  0  0  0  0
    1.7020   48.9530   66.5170 C   0  0  0  0  0  2  0  0  0  0  0  0
    0.9900   52.8430   60.8430 H   0  0  0  0  0  0  0  0  0  0  0  0
    2.3060   52.3040   59.8990 H   0  0  0  0  0  0  0  0  0  0  0  0
    3.0480   48.6700   62.6430 H   0  0  0  0  0  0  0  0  0  0  0  0
   -0.5280   48.0190   67.3950 N   0  0  0  0  0  0  0  0  0  0  0  0
    0.0070   47.3250   68.6190 C   0  0  0  0  0  2  0  0  0  0  0  0
    0.1460   48.4610   70.9210 C   0  0  0  0  0  1  0  0  0  0  0  0
    0.9000   48.0770   69.6490 C   0  0  0  0  0  3  0  0  0  0  0  0
    2.0760   47.1690   70.0550 C   0  0  0  0  0  1  0  0  0  0  0  0
   -1.9810   48.2980   67.6030 C   0  0  0  0  0  2  0  0  0  0  0  0
   -3.1000   47.3500   67.0790 C   0  0  0  0  0  2  0  0  0  0  0  0
   -3.7120   46.3340   68.0220 C   0  0  0  0  0  0  0  0  0  0  0  0
   -2.9930   45.7820   69.0900 C   0  0  0  0  0  3  0  0  0  0  0  0
   -3.5580   44.8090   69.9160 C   0  0  0  0  0  3  0  0  0  0  0  0
   -4.8710   44.4020   69.7050 C   0  0  0  0  0  0  0  0  0  0  0  0
   -5.5690   43.2110   70.7310 Cl  0  0  0  0  0  0  0  0  0  0  0  0
   -5.6170   44.9560   68.6680 C   0  0  0  0  0  3  0  0  0  0  0  0
   -5.0400   45.9190   67.8310 C   0  0  0  0  0  3  0  0  0  0  0  0
  1 16  1  6  0  0  0
  2  1  1  0  0  0  0
  3  2  1  0  0  0  0
  4  3  1  1  0  0  0
  4 11  1  0  0  0  0
  5  6  1  6  0  0  0
  5  4  1  0  0  0  0
  7  6  2  0  0  0  0
  8 13  1  0  0  0  0
  8  7  1  0  0  0  0
  9  7  1  0  0  0  0
  9 10  1  0  0  0  0
 10 15  1  0  0  0  0
 10  5  1  0  0  0  0
 11 12  1  0  0  0  0
 12  1  1  0  0  0  0
 14  8  1  0  0  0  0
 16 21  1  0  0  0  0
 16 17  1  0  0  0  0
 17 19  1  0  0  0  0
 19 20  1  0  0  0  0
 19 18  1  0  0  0  0
 22 21  1  0  0  0  0
 22 23  1  0  0  0  0
 23 24  1  0  0  0  0
 24 25  2  0  0  0  0
 26 25  1  0  0  0  0
 26 27  1  0  0  0  0
 28 26  2  0  0  0  0
 29 23  2  0  0  0  0
 29 28  1  0  0  0  0
M  END
>  <MODEL>
2

>  <REMARK>
 VINA RESULT:      -8.3      5.347      9.715
  Name = CHEMBL4076989-14.2
  8 active torsions:
  status: ('A' for Active; 'I' for Inactive)
    1  A    between atoms: C_1  and  C_2
    2  A    between atoms: C_2  and  C_3
    3  A    between atoms: C_2  and  C_4
    4  A    between atoms: C_4  and  N_5
    5  A    between atoms: N_5  and  C_6
    6  A    between atoms: N_5  and  C_15
    7  A    between atoms: C_6  and  C_7
    8  A    between atoms: C_7  and  C_8
                            x       y       z     vdW  Elec       q    Type
                         _______ _______ _______ _____ _____    ______ ____

>  <TORSDO>
F 6

>  <rfscore_v2>
7.026574537684533

>  <vina_affinity>
-8.668830388812614

>  <vina_gauss1>
105.03021064416663

>  <vina_gauss2>
1184.465625073175

>  <vina_repulsion>
0.5285777194889354

>  <vina_hydrophobic>
65.66031382753935

>  <vina_hydrogen>
0.0

>  <vina_intra_gauss1>
29.275833991098022

>  <vina_intra_gauss2>
184.8023924059292

>  <vina_intra_repulsion>
0.7565335271820138

>  <vina_intra_hydrophobic>
15.954860302124793

>  <vina_intra_hydrogen>
0.0

>  <vina_num_rotors>
6.0

>  <rfscore_v3>
6.543807619442644

>  <PLEClinear_p5_l1_s65536>
2.2780858047581556

>  <nnscore>
7.464698566315327

$$$$
CHEMBL4076989-14.2
 OpenBabel12202021053D

 29 31  0  0  1  0  0  0  0  0999 V2000
   -4.0700   48.2200   67.4110 C   0  0  2  0  0  3  0  0  0  0  0  0
   -2.6260   48.6430   67.0420 C   0  0  0  0  0  2  0  0  0  0  0  0
   -1.9230   49.4190   68.1490 C   0  0  0  0  0  2  0  0  0  0  0  0
   -2.7200   50.5750   68.5450 N   0  0  1  0  0  0  0  0  0  0  0  0
   -2.1730   51.8060   68.4330 C   0  0  2  0  0  3  0  0  0  0  0  0
   -1.0550   52.1460   67.8270 N   0  0  0  0  0  0  0  0  0  0  0  0
   -0.9740   53.4840   68.0280 C   0  0  0  0  0  0  0  0  0  0  0  0
    0.0760   54.1330   67.5220 N   0  0  0  0  0  0  0  0  0  0  0  0
   -1.9450   54.0160   68.7570 N   0  0  0  0  0  2  0  0  0  0  0  0
   -2.6980   52.9340   69.0040 N   0  0  0  0  0  0  0  0  0  0  0  0
   -4.1100   50.3020   68.8890 C   0  0  0  0  0  2  0  0  0  0  0  0
   -4.7720   49.5800   67.7130 C   0  0  0  0  0  2  0  0  0  0  0  0
    0.8700   53.5570   67.2800 H   0  0  0  0  0  0  0  0  0  0  0  0
    0.3040   55.0180   67.9550 H   0  0  0  0  0  0  0  0  0  0  0  0
   -3.5190   53.0170   69.5890 H   0  0  0  0  0  0  0  0  0  0  0  0
   -4.2670   47.1830   68.4970 N   0  0  0  0  0  0  0  0  0  0  0  0
   -5.7160   46.7770   68.5220 C   0  0  0  0  0  2  0  0  0  0  0  0
   -7.3880   44.8240   68.4910 C   0  0  0  0  0  1  0  0  0  0  0  0
   -6.2100   45.4970   67.7870 C   0  0  0  0  0  3  0  0  0  0  0  0
   -6.6660   45.8740   66.3650 C   0  0  0  0  0  1  0  0  0  0  0  0
   -3.4330   45.9570   68.3190 C   0  0  0  0  0  2  0  0  0  0  0  0
   -2.4970   45.4090   69.4380 C   0  0  0  0  0  2  0  0  0  0  0  0
   -3.1080   44.8440   70.7040 C   0  0  0  0  0  0  0  0  0  0  0  0
   -2.4320   44.8610   71.9300 C   0  0  0  0  0  3  0  0  0  0  0  0
   -2.9910   44.2880   73.0740 C   0  0  0  0  0  3  0  0  0  0  0  0
   -4.2600   43.7220   73.0110 C   0  0  0  0  0  0  0  0  0  0  0  0
   -4.9530   43.0270   74.4230 Cl  0  0  0  0  0  0  0  0  0  0  0  0
   -4.9660   43.7190   71.8110 C   0  0  0  0  0  3  0  0  0  0  0  0
   -4.3930   44.2780   70.6630 C   0  0  0  0  0  3  0  0  0  0  0  0
  1 12  1  0  0  0  0
  1 16  1  1  0  0  0
  2  1  1  0  0  0  0
  2  3  1  0  0  0  0
  4  3  1  6  0  0  0
  4 11  1  0  0  0  0
  5  6  1  1  0  0  0
  5  4  1  0  0  0  0
  5 10  1  0  0  0  0
  6  7  2  0  0  0  0
  7  9  1  0  0  0  0
  8 14  1  0  0  0  0
  8  7  1  0  0  0  0
  9 10  1  0  0  0  0
 10 15  1  0  0  0  0
 12 11  1  0  0  0  0
 13  8  1  0  0  0  0
 16 17  1  0  0  0  0
 19 18  1  0  0  0  0
 19 17  1  0  0  0  0
 20 19  1  0  0  0  0
 21 16  1  0  0  0  0
 21 22  1  0  0  0  0
 22 23  1  0  0  0  0
 23 24  1  0  0  0  0
 24 25  2  0  0  0  0
 26 25  1  0  0  0  0
 26 27  1  0  0  0  0
 28 26  2  0  0  0  0
 29 23  2  0  0  0  0
 29 28  1  0  0  0  0
M  END
>  <MODEL>
3

>  <REMARK>
 VINA RESULT:      -8.2      4.305      8.816
  Name = CHEMBL4076989-14.2
  8 active torsions:
  status: ('A' for Active; 'I' for Inactive)
    1  A    between atoms: C_1  and  C_2
    2  A    between atoms: C_2  and  C_3
    3  A    between atoms: C_2  and  C_4
    4  A    between atoms: C_4  and  N_5
    5  A    between atoms: N_5  and  C_6
    6  A    between atoms: N_5  and  C_15
    7  A    between atoms: C_6  and  C_7
    8  A    between atoms: C_7  and  C_8
                            x       y       z     vdW  Elec       q    Type
                         _______ _______ _______ _____ _____    ______ ____

>  <TORSDO>
F 6

>  <rfscore_v2>
7.640090394660898

>  <vina_affinity>
-7.950939104591289

>  <vina_gauss1>
95.02936570630877

>  <vina_gauss2>
1300.9070299214986

>  <vina_repulsion>
1.2508290075909811

>  <vina_hydrophobic>
42.12286188159595

>  <vina_hydrogen>
0.37168134769286965

>  <vina_intra_gauss1>
35.077544044069114

>  <vina_intra_gauss2>
195.65091604396952

>  <vina_intra_repulsion>
0.2614594277449891

>  <vina_intra_hydrophobic>
22.816784823491915

>  <vina_intra_hydrogen>
0.0

>  <vina_num_rotors>
6.0

>  <rfscore_v3>
7.131959100899105

>  <PLEClinear_p5_l1_s65536>
3.634140184939939

>  <nnscore>
7.469495787996584

$$$$
CHEMBL4076989-14.2
 OpenBabel12202021053D

 29 31  0  0  1  0  0  0  0  0999 V2000
    0.1940   50.3960   66.0370 C   0  0  2  0  0  3  0  0  0  0  0  0
    1.3210   49.3470   66.2060 C   0  0  0  0  0  2  0  0  0  0  0  0
    0.8920   48.1210   67.0040 C   0  0  0  0  0  2  0  0  0  0  0  0
    0.3530   48.5210   68.2990 N   0  0  1  0  0  0  0  0  0  0  0  0
    0.9460   48.0500   69.4190 C   0  0  2  0  0  3  0  0  0  0  0  0
    2.0890   47.4060   69.5230 N   0  0  0  0  0  0  0  0  0  0  0  0
    2.1990   47.1570   70.8510 C   0  0  0  0  0  0  0  0  0  0  0  0
    3.2780   46.5020   71.2800 N   0  0  0  0  0  0  0  0  0  0  0  0
    1.1810   47.5620   71.5980 N   0  0  0  0  0  2  0  0  0  0  0  0
    0.3950   48.1280   70.6700 N   0  0  0  0  0  0  0  0  0  0  0  0
   -0.6990   49.5290   68.2670 C   0  0  0  0  0  2  0  0  0  0  0  0
   -0.1810   50.7530   67.5100 C   0  0  0  0  0  2  0  0  0  0  0  0
    3.7890   45.9910   70.5750 H   0  0  0  0  0  0  0  0  0  0  0  0
    3.1880   46.0300   72.1710 H   0  0  0  0  0  0  0  0  0  0  0  0
   -0.5040   48.5070   70.9380 H   0  0  0  0  0  0  0  0  0  0  0  0
   -1.0010   50.0440   65.1770 N   0  0  0  0  0  0  0  0  0  0  0  0
   -2.1430   50.9570   65.5370 C   0  0  0  0  0  2  0  0  0  0  0  0
   -3.5800   48.8680   65.9630 C   0  0  0  0  0  1  0  0  0  0  0  0
   -3.5530   50.3940   65.8770 C   0  0  0  0  0  3  0  0  0  0  0  0
   -4.0040   50.9500   67.2410 C   0  0  0  0  0  1  0  0  0  0  0  0
   -0.7440   50.1590   63.7100 C   0  0  0  0  0  2  0  0  0  0  0  0
    0.1890   51.2510   63.1060 C   0  0  0  0  0  2  0  0  0  0  0  0
    1.4610   50.8300   62.3990 C   0  0  0  0  0  0  0  0  0  0  0  0
    2.1820   49.6910   62.7780 C   0  0  0  0  0  3  0  0  0  0  0  0
    3.3800   49.3480   62.1470 C   0  0  0  0  0  3  0  0  0  0  0  0
    3.8510   50.1260   61.0960 C   0  0  0  0  0  0  0  0  0  0  0  0
    5.3210   49.6970   60.3120 Cl  0  0  0  0  0  0  0  0  0  0  0  0
    3.1380   51.2470   60.6790 C   0  0  0  0  0  3  0  0  0  0  0  0
    1.9470   51.5960   61.3270 C   0  0  0  0  0  3  0  0  0  0  0  0
  1 16  1  1  0  0  0
  1  2  1  0  0  0  0
  1 12  1  0  0  0  0
  2  3  1  0  0  0  0
  4  3  1  6  0  0  0
  4  5  1  0  0  0  0
  5  6  1  6  0  0  0
  5 10  1  0  0  0  0
  6  7  2  0  0  0  0
  7  8  1  0  0  0  0
  7  9  1  0  0  0  0
  8 14  1  0  0  0  0
 10 15  1  0  0  0  0
 10  9  1  0  0  0  0
 11  4  1  0  0  0  0
 12 11  1  0  0  0  0
 13  8  1  0  0  0  0
 16 17  1  0  0  0  0
 17 19  1  0  0  0  0
 19 18  1  0  0  0  0
 19 20  1  0  0  0  0
 21 16  1  0  0  0  0
 22 21  1  0  0  0  0
 23 24  1  0  0  0  0
 23 22  1  0  0  0  0
 25 24  2  0  0  0  0
 26 25  1  0  0  0  0
 27 26  1  0  0  0  0
 28 26  2  0  0  0  0
 28 29  1  0  0  0  0
 29 23  2  0  0  0  0
M  END
>  <MODEL>
4

>  <REMARK>
 VINA RESULT:      -8.1      5.868      8.161
  Name = CHEMBL4076989-14.2
  8 active torsions:
  status: ('A' for Active; 'I' for Inactive)
    1  A    between atoms: C_1  and  C_2
    2  A    between atoms: C_2  and  C_3
    3  A    between atoms: C_2  and  C_4
    4  A    between atoms: C_4  and  N_5
    5  A    between atoms: N_5  and  C_6
    6  A    between atoms: N_5  and  C_15
    7  A    between atoms: C_6  and  C_7
    8  A    between atoms: C_7  and  C_8
                            x       y       z     vdW  Elec       q    Type
                         _______ _______ _______ _____ _____    ______ ____

>  <TORSDO>
F 6

>  <rfscore_v2>
7.223659522921517

>  <vina_affinity>
-7.97399430142143

>  <vina_gauss1>
90.94993743593358

>  <vina_gauss2>
1226.1757255777197

>  <vina_repulsion>
1.1227567516971657

>  <vina_hydrophobic>
50.17260951059198

>  <vina_hydrogen>
0.6644614346233821

>  <vina_intra_gauss1>
37.9206222853

>  <vina_intra_gauss2>
197.3205492316406

>  <vina_intra_repulsion>
0.4548488143201182

>  <vina_intra_hydrophobic>
19.02478878439497

>  <vina_intra_hydrogen>
0.0

>  <vina_num_rotors>
6.0

>  <rfscore_v3>
7.114515411310918

>  <PLEClinear_p5_l1_s65536>
2.1815722122709027

>  <nnscore>
7.453223109403579

$$$$
CHEMBL4076989-14.2
 OpenBabel12202021053D

 29 31  0  0  1  0  0  0  0  0999 V2000
   -1.0130   48.7660   68.1350 C   0  0  2  0  0  3  0  0  0  0  0  0
   -0.2620   47.8630   69.1460 C   0  0  0  0  0  2  0  0  0  0  0  0
   -0.5910   46.3830   68.9950 C   0  0  0  0  0  2  0  0  0  0  0  0
   -2.0320   46.1710   69.0760 N   0  0  1  0  0  0  0  0  0  0  0  0
   -2.5120   45.3570   70.0430 C   0  0  2  0  0  3  0  0  0  0  0  0
   -1.8670   44.8510   71.0730 N   0  0  0  0  0  0  0  0  0  0  0  0
   -2.8050   44.1050   71.7060 C   0  0  0  0  0  0  0  0  0  0  0  0
   -2.4470   43.4510   72.8120 N   0  0  0  0  0  0  0  0  0  0  0  0
   -3.9960   44.0660   71.1260 N   0  0  0  0  0  2  0  0  0  0  0  0
   -3.7910   44.8690   70.0710 N   0  0  0  0  0  0  0  0  0  0  0  0
   -2.8470   46.9890   68.1870 C   0  0  0  0  0  2  0  0  0  0  0  0
   -2.5140   48.4620   68.4360 C   0  0  0  0  0  2  0  0  0  0  0  0
   -1.4530   43.3230   72.9410 H   0  0  0  0  0  0  0  0  0  0  0  0
   -3.0180   42.6560   73.0640 H   0  0  0  0  0  0  0  0  0  0  0  0
   -4.5310   45.0110   69.3970 H   0  0  0  0  0  0  0  0  0  0  0  0
   -0.6570   48.6620   66.6670 N   0  0  0  0  0  0  0  0  0  0  0  0
   -1.1620   49.8900   65.9590 C   0  0  0  0  0  2  0  0  0  0  0  0
   -2.4310   48.3410   64.3470 C   0  0  0  0  0  1  0  0  0  0  0  0
   -2.1570   49.7850   64.7670 C   0  0  0  0  0  3  0  0  0  0  0  0
   -3.5000   50.4200   65.1720 C   0  0  0  0  0  1  0  0  0  0  0  0
    0.8090   48.5330   66.4100 C   0  0  0  0  0  2  0  0  0  0  0  0
    1.3820   47.7120   65.2160 C   0  0  0  0  0  2  0  0  0  0  0  0
    2.0060   48.4430   64.0460 C   0  0  0  0  0  0  0  0  0  0  0  0
    1.5530   49.7000   63.6250 C   0  0  0  0  0  3  0  0  0  0  0  0
    2.1090   50.3350   62.5120 C   0  0  0  0  0  3  0  0  0  0  0  0
    3.1570   49.7310   61.8270 C   0  0  0  0  0  0  0  0  0  0  0  0
    3.8480   50.5190   60.4630 Cl  0  0  0  0  0  0  0  0  0  0  0  0
    3.6460   48.4960   62.2420 C   0  0  0  0  0  3  0  0  0  0  0  0
    3.0740   47.8550   63.3480 C   0  0  0  0  0  3  0  0  0  0  0  0
  1 16  1  6  0  0  0
  1 12  1  0  0  0  0
  1  2  1  0  0  0  0
  3  2  1  0  0  0  0
  4  3  1  1  0  0  0
  4 11  1  0  0  0  0
  4  5  1  0  0  0  0
  5 10  1  0  0  0  0
  5  6  1  6  0  0  0
  6  7  2  0  0  0  0
  7  8  1  0  0  0  0
  8 13  1  0  0  0  0
  8 14  1  0  0  0  0
  9  7  1  0  0  0  0
 10  9  1  0  0  0  0
 11 12  1  0  0  0  0
 15 10  1  0  0  0  0
 17 16  1  0  0  0  0
 18 19  1  0  0  0  0
 19 20  1  0  0  0  0
 19 17  1  0  0  0  0
 21 16  1  0  0  0  0
 22 21  1  0  0  0  0
 23 22  1  0  0  0  0
 24 23  1  0  0  0  0
 25 24  2  0  0  0  0
 26 28  2  0  0  0  0
 26 25  1  0  0  0  0
 27 26  1  0  0  0  0
 28 29  1  0  0  0  0
 29 23  2  0  0  0  0
M  END
>  <MODEL>
5

>  <REMARK>
 VINA RESULT:      -8.1      4.183      6.066
  Name = CHEMBL4076989-14.2
  8 active torsions:
  status: ('A' for Active; 'I' for Inactive)
    1  A    between atoms: C_1  and  C_2
    2  A    between atoms: C_2  and  C_3
    3  A    between atoms: C_2  and  C_4
    4  A    between atoms: C_4  and  N_5
    5  A    between atoms: N_5  and  C_6
    6  A    between atoms: N_5  and  C_15
    7  A    between atoms: C_6  and  C_7
    8  A    between atoms: C_7  and  C_8
                            x       y       z     vdW  Elec       q    Type
                         _______ _______ _______ _____ _____    ______ ____

>  <TORSDO>
F 6

>  <rfscore_v2>
7.262459384226884

>  <vina_affinity>
-7.849936600195966

>  <vina_gauss1>
75.00758261664625

>  <vina_gauss2>
1293.7630268892788

>  <vina_repulsion>
0.9629728286041843

>  <vina_hydrophobic>
44.90605217549799

>  <vina_hydrogen>
0.8379419618926784

>  <vina_intra_gauss1>
37.6161461259514

>  <vina_intra_gauss2>
181.3974742081553

>  <vina_intra_repulsion>
0.14201114064196174

>  <vina_intra_hydrophobic>
22.401692188931243

>  <vina_intra_hydrogen>
0.0

>  <vina_num_rotors>
6.0

>  <rfscore_v3>
6.979218751137753

>  <PLEClinear_p5_l1_s65536>
3.1424155337534594

>  <nnscore>
6.534480502660597

$$$$
CHEMBL4076989-14.2
 OpenBabel12202021053D

 29 31  0  0  1  0  0  0  0  0999 V2000
   -1.8290   49.4990   69.2070 C   0  0  2  0  0  3  0  0  0  0  0  0
   -3.3250   49.5780   68.8120 C   0  0  0  0  0  2  0  0  0  0  0  0
   -3.5870   49.1950   67.3600 C   0  0  0  0  0  2  0  0  0  0  0  0
   -2.7690   50.0050   66.4650 N   0  0  1  0  0  0  0  0  0  0  0  0
   -3.3870   50.7700   65.5380 C   0  0  2  0  0  3  0  0  0  0  0  0
   -4.6710   51.0440   65.4360 N   0  0  0  0  0  0  0  0  0  0  0  0
   -4.7460   51.8310   64.3350 C   0  0  0  0  0  0  0  0  0  0  0  0
   -5.9460   52.2800   63.9640 N   0  0  0  0  0  0  0  0  0  0  0  0
   -3.6010   52.0450   63.7010 N   0  0  0  0  0  2  0  0  0  0  0  0
   -2.7480   51.3630   64.4820 N   0  0  0  0  0  0  0  0  0  0  0  0
   -1.3410   50.0310   66.7570 C   0  0  0  0  0  2  0  0  0  0  0  0
   -1.1460   50.4830   68.2060 C   0  0  0  0  0  2  0  0  0  0  0  0
   -6.7360   51.7800   64.3460 H   0  0  0  0  0  0  0  0  0  0  0  0
   -6.0390   52.5530   62.9940 H   0  0  0  0  0  0  0  0  0  0  0  0
   -1.7720   51.3070   64.2270 H   0  0  0  0  0  0  0  0  0  0  0  0
   -1.1650   48.1390   69.2660 N   0  0  0  0  0  0  0  0  0  0  0  0
    0.0930   48.2500   70.0850 C   0  0  0  0  0  2  0  0  0  0  0  0
    2.3000   46.9960   70.4940 C   0  0  0  0  0  1  0  0  0  0  0  0
    1.4740   47.8220   69.5080 C   0  0  0  0  0  3  0  0  0  0  0  0
    1.2510   46.9650   68.2480 C   0  0  0  0  0  1  0  0  0  0  0  0
   -2.0270   47.0730   69.8600 C   0  0  0  0  0  2  0  0  0  0  0  0
   -2.4170   45.7810   69.0830 C   0  0  0  0  0  2  0  0  0  0  0  0
   -3.8770   45.3850   68.9900 C   0  0  0  0  0  0  0  0  0  0  0  0
   -4.6990   45.8110   67.9390 C   0  0  0  0  0  3  0  0  0  0  0  0
   -6.0540   45.4770   67.8980 C   0  0  0  0  0  3  0  0  0  0  0  0
   -6.5960   44.6750   68.8960 C   0  0  0  0  0  0  0  0  0  0  0  0
   -8.2630   44.2560   68.8400 Cl  0  0  0  0  0  0  0  0  0  0  0  0
   -5.7940   44.2140   69.9370 C   0  0  0  0  0  3  0  0  0  0  0  0
   -4.4400   44.5660   69.9820 C   0  0  0  0  0  3  0  0  0  0  0  0
  1 16  1  6  0  0  0
  2  1  1  0  0  0  0
  3  2  1  0  0  0  0
  4 11  1  1  0  0  0
  4  3  1  0  0  0  0
  5  6  1  6  0  0  0
  5  4  1  0  0  0  0
  7  6  2  0  0  0  0
  8  7  1  0  0  0  0
  8 13  1  0  0  0  0
  9  7  1  0  0  0  0
  9 10  1  0  0  0  0
 10  5  1  0  0  0  0
 11 12  1  0  0  0  0
 12  1  1  0  0  0  0
 14  8  1  0  0  0  0
 15 10  1  0  0  0  0
 16 21  1  0  0  0  0
 16 17  1  0  0  0  0
 19 17  1  0  0  0  0
 19 18  1  0  0  0  0
 20 19  1  0  0  0  0
 22 21  1  0  0  0  0
 23 22  1  0  0  0  0
 23 29  1  0  0  0  0
 24 23  2  0  0  0  0
 25 24  1  0  0  0  0
 25 26  2  0  0  0  0
 26 28  1  0  0  0  0
 27 26  1  0  0  0  0
 28 29  2  0  0  0  0
M  END
>  <MODEL>
6

>  <REMARK>
 VINA RESULT:      -8.1      4.591      8.202
  Name = CHEMBL4076989-14.2
  8 active torsions:
  status: ('A' for Active; 'I' for Inactive)
    1  A    between atoms: C_1  and  C_2
    2  A    between atoms: C_2  and  C_3
    3  A    between atoms: C_2  and  C_4
    4  A    between atoms: C_4  and  N_5
    5  A    between atoms: N_5  and  C_6
    6  A    between atoms: N_5  and  C_15
    7  A    between atoms: C_6  and  C_7
    8  A    between atoms: C_7  and  C_8
                            x       y       z     vdW  Elec       q    Type
                         _______ _______ _______ _____ _____    ______ ____

>  <TORSDO>
F 6

>  <rfscore_v2>
7.114713408369402

>  <vina_affinity>
-8.01112103861441

>  <vina_gauss1>
84.90303749543116

>  <vina_gauss2>
1180.8471696660854

>  <vina_repulsion>
1.0568633864294732

>  <vina_hydrophobic>
62.52794162753297

>  <vina_hydrogen>
0.6820093463851272

>  <vina_intra_gauss1>
32.12781370528039

>  <vina_intra_gauss2>
217.35576756308552

>  <vina_intra_repulsion>
0.17237386761746684

>  <vina_intra_hydrophobic>
17.201487359566528

>  <vina_intra_hydrogen>
0.0

>  <vina_num_rotors>
6.0

>  <rfscore_v3>
6.671245379897872

>  <PLEClinear_p5_l1_s65536>
0.7989139964385683

>  <nnscore>
6.675931592690932

$$$$
CHEMBL4076989-14.2
 OpenBabel12202021053D

 29 31  0  0  1  0  0  0  0  0999 V2000
   -2.0560   50.0420   67.9760 C   0  0  2  0  0  3  0  0  0  0  0  0
   -1.0180   49.0220   68.5080 C   0  0  0  0  0  2  0  0  0  0  0  0
   -1.2860   47.5930   68.0500 C   0  0  0  0  0  2  0  0  0  0  0  0
   -2.6420   47.1910   68.4050 N   0  0  1  0  0  0  0  0  0  0  0  0
   -2.8080   46.1140   69.2050 C   0  0  2  0  0  3  0  0  0  0  0  0
   -1.8910   45.4580   69.8850 N   0  0  0  0  0  0  0  0  0  0  0  0
   -2.5890   44.4700   70.4960 C   0  0  0  0  0  0  0  0  0  0  0  0
   -1.9200   43.6180   71.2750 N   0  0  0  0  0  0  0  0  0  0  0  0
   -3.8840   44.4250   70.2200 N   0  0  0  0  0  2  0  0  0  0  0  0
   -4.0050   45.4790   69.3990 N   0  0  0  0  0  0  0  0  0  0  0  0
   -3.7050   48.0920   67.9800 C   0  0  0  0  0  2  0  0  0  0  0  0
   -3.4080   49.4900   68.5260 C   0  0  0  0  0  2  0  0  0  0  0  0
   -0.9210   43.5860   71.1310 H   0  0  0  0  0  0  0  0  0  0  0  0
   -2.3600   42.7200   71.4320 H   0  0  0  0  0  0  0  0  0  0  0  0
   -4.9010   45.6870   68.9780 H   0  0  0  0  0  0  0  0  0  0  0  0
   -2.0830   50.3420   66.4920 N   0  0  0  0  0  0  0  0  0  0  0  0
   -3.2840   51.1980   66.1930 C   0  0  0  0  0  2  0  0  0  0  0  0
   -5.6440   50.2670   65.7790 C   0  0  0  0  0  1  0  0  0  0  0  0
   -4.3460   50.7630   65.1420 C   0  0  0  0  0  3  0  0  0  0  0  0
   -4.6930   51.9660   64.2460 C   0  0  0  0  0  1  0  0  0  0  0  0
   -0.8620   51.0460   65.9970 C   0  0  0  0  0  2  0  0  0  0  0  0
   -0.3030   50.8420   64.5570 C   0  0  0  0  0  2  0  0  0  0  0  0
    0.6610   49.7040   64.2910 C   0  0  0  0  0  0  0  0  0  0  0  0
    1.7100   49.8170   63.3690 C   0  0  0  0  0  3  0  0  0  0  0  0
    2.5570   48.7400   63.1010 C   0  0  0  0  0  3  0  0  0  0  0  0
    2.3860   47.5410   63.7850 C   0  0  0  0  0  0  0  0  0  0  0  0
    3.4370   46.2190   63.4610 Cl  0  0  0  0  0  0  0  0  0  0  0  0
    1.3690   47.4120   64.7270 C   0  0  0  0  0  3  0  0  0  0  0  0
    0.5110   48.4900   64.9800 C   0  0  0  0  0  3  0  0  0  0  0  0
  1 16  1  6  0  0  0
  1  2  1  0  0  0  0
  1 12  1  0  0  0  0
  3  2  1  0  0  0  0
  4  3  1  1  0  0  0
  4 11  1  0  0  0  0
  4  5  1  0  0  0  0
  5 10  1  0  0  0  0
  5  6  1  6  0  0  0
  6  7  2  0  0  0  0
  7  8  1  0  0  0  0
  8 14  1  0  0  0  0
  9  7  1  0  0  0  0
 10  9  1  0  0  0  0
 11 12  1  0  0  0  0
 13  8  1  0  0  0  0
 15 10  1  0  0  0  0
 17 16  1  0  0  0  0
 19 18  1  0  0  0  0
 19 17  1  0  0  0  0
 20 19  1  0  0  0  0
 21 16  1  0  0  0  0
 22 21  1  0  0  0  0
 23 22  1  0  0  0  0
 23 29  1  0  0  0  0
 24 23  2  0  0  0  0
 25 24  1  0  0  0  0
 25 26  2  0  0  0  0
 26 28  1  0  0  0  0
 27 26  1  0  0  0  0
 28 29  2  0  0  0  0
M  END
>  <MODEL>
7

>  <REMARK>
 VINA RESULT:      -7.9      3.888      6.463
  Name = CHEMBL4076989-14.2
  8 active torsions:
  status: ('A' for Active; 'I' for Inactive)
    1  A    between atoms: C_1  and  C_2
    2  A    between atoms: C_2  and  C_3
    3  A    between atoms: C_2  and  C_4
    4  A    between atoms: C_4  and  N_5
    5  A    between atoms: N_5  and  C_6
    6  A    between atoms: N_5  and  C_15
    7  A    between atoms: C_6  and  C_7
    8  A    between atoms: C_7  and  C_8
                            x       y       z     vdW  Elec       q    Type
                         _______ _______ _______ _____ _____    ______ ____

>  <TORSDO>
F 6

>  <rfscore_v2>
7.300963347374847

>  <vina_affinity>
-7.874260479419847

>  <vina_gauss1>
83.03996044229908

>  <vina_gauss2>
1240.838201975571

>  <vina_repulsion>
1.1659353767523708

>  <vina_hydrophobic>
38.98051531847252

>  <vina_hydrogen>
1.5167765290460409

>  <vina_intra_gauss1>
31.923370531998685

>  <vina_intra_gauss2>
215.65275783631583

>  <vina_intra_repulsion>
0.2803809698362482

>  <vina_intra_hydrophobic>
16.43401308635168

>  <vina_intra_hydrogen>
0.0

>  <vina_num_rotors>
6.0

>  <rfscore_v3>
7.070743904223234

>  <PLEClinear_p5_l1_s65536>
4.178462401025626

>  <nnscore>
6.392115420053886

$$$$
CHEMBL4076989-14.2
 OpenBabel12202021053D

 29 31  0  0  1  0  0  0  0  0999 V2000
   -1.2890   48.0130   66.4490 C   0  0  2  0  0  3  0  0  0  0  0  0
   -1.9040   48.8290   65.2830 C   0  0  0  0  0  2  0  0  0  0  0  0
   -2.7390   50.0150   65.7500 C   0  0  0  0  0  2  0  0  0  0  0  0
   -3.7720   49.5730   66.6800 N   0  0  1  0  0  0  0  0  0  0  0  0
   -5.0660   49.8100   66.3680 C   0  0  2  0  0  3  0  0  0  0  0  0
   -5.5620   50.2320   65.2240 N   0  0  0  0  0  0  0  0  0  0  0  0
   -6.8940   50.3120   65.4600 C   0  0  0  0  0  0  0  0  0  0  0  0
   -7.6850   50.7210   64.4670 N   0  0  0  0  0  0  0  0  0  0  0  0
   -7.2800   50.0090   66.6920 N   0  0  0  0  0  2  0  0  0  0  0  0
   -6.1040   49.6910   67.2540 N   0  0  0  0  0  0  0  0  0  0  0  0
   -3.3140   48.7710   67.8070 C   0  0  0  0  0  2  0  0  0  0  0  0
   -2.5400   47.5670   67.2670 C   0  0  0  0  0  2  0  0  0  0  0  0
   -7.2230   51.2110   63.7140 H   0  0  0  0  0  0  0  0  0  0  0  0
   -8.5820   51.1010   64.7390 H   0  0  0  0  0  0  0  0  0  0  0  0
   -6.0670   49.4450   68.2340 H   0  0  0  0  0  0  0  0  0  0  0  0
   -0.2110   48.6580   67.2950 N   0  0  0  0  0  0  0  0  0  0  0  0
   -0.1240   47.9260   68.6080 C   0  0  0  0  0  2  0  0  0  0  0  0
   -0.9490   49.1020   70.7400 C   0  0  0  0  0  1  0  0  0  0  0  0
    0.2650   48.6650   69.9210 C   0  0  0  0  0  3  0  0  0  0  0  0
    1.1100   47.7220   70.7990 C   0  0  0  0  0  1  0  0  0  0  0  0
    1.1400   48.6530   66.6570 C   0  0  0  0  0  2  0  0  0  0  0  0
    1.4140   47.9840   65.2780 C   0  0  0  0  0  2  0  0  0  0  0  0
    1.8330   48.8470   64.1050 C   0  0  0  0  0  0  0  0  0  0  0  0
    1.1220   49.9940   63.7320 C   0  0  0  0  0  3  0  0  0  0  0  0
    1.4960   50.7470   62.6180 C   0  0  0  0  0  3  0  0  0  0  0  0
    2.6170   50.3800   61.8820 C   0  0  0  0  0  0  0  0  0  0  0  0
    3.0830   51.3150   60.5160 Cl  0  0  0  0  0  0  0  0  0  0  0  0
    3.3590   49.2600   62.2490 C   0  0  0  0  0  3  0  0  0  0  0  0
    2.9700   48.4980   63.3570 C   0  0  0  0  0  3  0  0  0  0  0  0
  1 12  1  0  0  0  0
  1 16  1  1  0  0  0
  2  3  1  0  0  0  0
  2  1  1  0  0  0  0
  4  3  1  6  0  0  0
  4 11  1  0  0  0  0
  5  6  1  1  0  0  0
  5  4  1  0  0  0  0
  5 10  1  0  0  0  0
  6  7  2  0  0  0  0
  7  9  1  0  0  0  0
  8 14  1  0  0  0  0
  8  7  1  0  0  0  0
  9 10  1  0  0  0  0
 10 15  1  0  0  0  0
 12 11  1  0  0  0  0
 13  8  1  0  0  0  0
 16 17  1  0  0  0  0
 17 19  1  0  0  0  0
 19 18  1  0  0  0  0
 19 20  1  0  0  0  0
 21 16  1  0  0  0  0
 22 21  1  0  0  0  0
 23 22  1  0  0  0  0
 24 23  1  0  0  0  0
 25 24  2  0  0  0  0
 26 28  2  0  0  0  0
 26 25  1  0  0  0  0
 27 26  1  0  0  0  0
 28 29  1  0  0  0  0
 29 23  2  0  0  0  0
M  END
>  <MODEL>
8

>  <REMARK>
 VINA RESULT:      -7.9      5.805      7.576
  Name = CHEMBL4076989-14.2
  8 active torsions:
  status: ('A' for Active; 'I' for Inactive)
    1  A    between atoms: C_1  and  C_2
    2  A    between atoms: C_2  and  C_3
    3  A    between atoms: C_2  and  C_4
    4  A    between atoms: C_4  and  N_5
    5  A    between atoms: N_5  and  C_6
    6  A    between atoms: N_5  and  C_15
    7  A    between atoms: C_6  and  C_7
    8  A    between atoms: C_7  and  C_8
                            x       y       z     vdW  Elec       q    Type
                         _______ _______ _______ _____ _____    ______ ____

>  <TORSDO>
F 6

>  <rfscore_v2>
6.9047112231102235

>  <vina_affinity>
-8.24338852331901

>  <vina_gauss1>
79.11379365314554

>  <vina_gauss2>
1194.560321690955

>  <vina_repulsion>
0.6084309897226241

>  <vina_hydrophobic>
64.59347351258778

>  <vina_hydrogen>
0.6819194073285294

>  <vina_intra_gauss1>
29.332607922970784

>  <vina_intra_gauss2>
195.8922565391088

>  <vina_intra_repulsion>
0.6947734001816639

>  <vina_intra_hydrophobic>
16.01896602162837

>  <vina_intra_hydrogen>
0.0

>  <vina_num_rotors>
6.0

>  <rfscore_v3>
6.674817917193917

>  <PLEClinear_p5_l1_s65536>
1.5330847720207719

>  <nnscore>
7.127290351814162

$$$$
CHEMBL4076989-14.2
 OpenBabel12202021053D

 29 31  0  0  1  0  0  0  0  0999 V2000
   -1.6990   49.4000   64.9370 C   0  0  2  0  0  3  0  0  0  0  0  0
   -0.7150   48.2110   64.7990 C   0  0  0  0  0  2  0  0  0  0  0  0
    0.7480   48.6220   64.9080 C   0  0  0  0  0  2  0  0  0  0  0  0
    1.0560   49.6670   63.9390 N   0  0  1  0  0  0  0  0  0  0  0  0
    2.0200   49.4340   63.0200 C   0  0  2  0  0  3  0  0  0  0  0  0
    2.6200   48.2960   62.7430 N   0  0  0  0  0  0  0  0  0  0  0  0
    3.4990   48.6250   61.7670 C   0  0  0  0  0  0  0  0  0  0  0  0
    4.2730   47.6600   61.2660 N   0  0  0  0  0  0  0  0  0  0  0  0
    3.5320   49.9060   61.4290 N   0  0  0  0  0  2  0  0  0  0  0  0
    2.5840   50.4050   62.2360 N   0  0  0  0  0  0  0  0  0  0  0  0
    0.1760   50.8300   63.9560 C   0  0  0  0  0  2  0  0  0  0  0  0
   -1.2670   50.3530   63.7790 C   0  0  0  0  0  2  0  0  0  0  0  0
    4.3570   46.8290   61.8350 H   0  0  0  0  0  0  0  0  0  0  0  0
    5.1280   47.9620   60.8190 H   0  0  0  0  0  0  0  0  0  0  0  0
    2.3980   51.3990   62.2370 H   0  0  0  0  0  0  0  0  0  0  0  0
   -1.8150   50.0930   66.2790 N   0  0  0  0  0  0  0  0  0  0  0  0
   -3.0680   50.9280   66.2860 C   0  0  0  0  0  2  0  0  0  0  0  0
   -5.4720   50.0670   66.5850 C   0  0  0  0  0  1  0  0  0  0  0  0
   -4.3710   50.4370   65.5910 C   0  0  0  0  0  3  0  0  0  0  0  0
   -4.9140   51.5580   64.6850 C   0  0  0  0  0  1  0  0  0  0  0  0
   -1.8630   49.1540   67.4400 C   0  0  0  0  0  2  0  0  0  0  0  0
   -1.3550   49.5490   68.8590 C   0  0  0  0  0  2  0  0  0  0  0  0
   -0.2120   48.7720   69.4790 C   0  0  0  0  0  0  0  0  0  0  0  0
   -0.0370   48.6820   70.8660 C   0  0  0  0  0  3  0  0  0  0  0  0
    1.0520   48.0040   71.4170 C   0  0  0  0  0  3  0  0  0  0  0  0
    1.9640   47.3710   70.5800 C   0  0  0  0  0  0  0  0  0  0  0  0
    3.2990   46.5270   71.2600 Cl  0  0  0  0  0  0  0  0  0  0  0  0
    1.7980   47.4200   69.1990 C   0  0  0  0  0  3  0  0  0  0  0  0
    0.7140   48.1160   68.6500 C   0  0  0  0  0  3  0  0  0  0  0  0
  1 16  1  1  0  0  0
  2  3  1  0  0  0  0
  2  1  1  0  0  0  0
  4 11  1  6  0  0  0
  4  3  1  0  0  0  0
  5  6  1  1  0  0  0
  5  4  1  0  0  0  0
  7  6  2  0  0  0  0
  8  7  1  0  0  0  0
  8 13  1  0  0  0  0
  9  7  1  0  0  0  0
  9 10  1  0  0  0  0
 10 15  1  0  0  0  0
 10  5  1  0  0  0  0
 12 11  1  0  0  0  0
 12  1  1  0  0  0  0
 14  8  1  0  0  0  0
 16 17  1  0  0  0  0
 16 21  1  0  0  0  0
 19 17  1  0  0  0  0
 19 18  1  0  0  0  0
 20 19  1  0  0  0  0
 21 22  1  0  0  0  0
 22 23  1  0  0  0  0
 23 24  1  0  0  0  0
 24 25  2  0  0  0  0
 26 27  1  0  0  0  0
 26 25  1  0  0  0  0
 28 26  2  0  0  0  0
 29 28  1  0  0  0  0
 29 23  2  0  0  0  0
M  END
>  <MODEL>
9

>  <REMARK>
 VINA RESULT:      -7.8      6.369      9.941
  Name = CHEMBL4076989-14.2
  8 active torsions:
  status: ('A' for Active; 'I' for Inactive)
    1  A    between atoms: C_1  and  C_2
    2  A    between atoms: C_2  and  C_3
    3  A    between atoms: C_2  and  C_4
    4  A    between atoms: C_4  and  N_5
    5  A    between atoms: N_5  and  C_6
    6  A    between atoms: N_5  and  C_15
    7  A    between atoms: C_6  and  C_7
    8  A    between atoms: C_7  and  C_8
                            x       y       z     vdW  Elec       q    Type
                         _______ _______ _______ _____ _____    ______ ____

>  <TORSDO>
F 6

>  <rfscore_v2>
7.050597712842713

>  <vina_affinity>
-7.80418504214838

>  <vina_gauss1>
86.77338765836151

>  <vina_gauss2>
1231.1040665484284

>  <vina_repulsion>
0.8044931422324187

>  <vina_hydrophobic>
50.643836107981

>  <vina_hydrogen>
0.0

>  <vina_intra_gauss1>
28.947065816297

>  <vina_intra_gauss2>
206.2118113827155

>  <vina_intra_repulsion>
0.11590300719225757

>  <vina_intra_hydrophobic>
16.099987682640606

>  <vina_intra_hydrogen>
0.0

>  <vina_num_rotors>
6.0

>  <rfscore_v3>
6.552811396603398

>  <PLEClinear_p5_l1_s65536>
2.9633228727136913

>  <nnscore>
7.14631367200713

$$$$
