CHEMBL4081105-1111
 OpenBabel12202021063D

 26 28  0  0  1  0  0  0  0  0999 V2000
   -3.5180   46.4680   68.0690 C   0  0  1  0  0  3  0  0  0  0  0  0
   -2.6170   46.2100   69.2950 C   0  0  0  0  0  2  0  0  0  0  0  0
   -2.8990   44.8120   69.8550 C   0  0  0  0  0  2  0  0  0  0  0  0
   -4.3290   44.6520   70.1290 N   0  0  2  0  0  0  0  0  0  0  0  0
   -4.7220   44.1210   71.3120 C   0  0  1  0  0  3  0  0  0  0  0  0
   -4.0150   43.9470   72.4080 N   0  0  0  0  0  0  0  0  0  0  0  0
   -4.9060   43.4340   73.2900 C   0  0  0  0  0  0  0  0  0  0  0  0
   -4.5110   43.1990   74.5370 N   0  0  0  0  0  0  0  0  0  0  0  0
   -6.1390   43.2600   72.8320 N   0  0  0  0  0  2  0  0  0  0  0  0
   -5.9920   43.6770   71.5630 N   0  0  0  0  0  0  0  0  0  0  0  0
   -5.2520   44.9590   69.0510 C   0  0  0  0  0  2  0  0  0  0  0  0
   -4.9830   46.3710   68.5450 C   0  0  0  0  0  2  0  0  0  0  0  0
   -3.6750   43.6830   74.8350 H   0  0  0  0  0  0  0  0  0  0  0  0
   -5.2420   43.1550   75.2360 H   0  0  0  0  0  0  0  0  0  0  0  0
   -6.7830   43.6390   70.9430 H   0  0  0  0  0  0  0  0  0  0  0  0
   -3.1740   47.6690   67.2650 N   0  0  0  0  0  0  0  0  0  0  0  0
   -3.8690   47.7700   65.9870 C   0  0  0  0  0  1  0  0  0  0  0  0
   -1.7050   47.7750   67.1240 C   0  0  0  0  0  2  0  0  0  0  0  0
   -1.0060   48.9600   67.8010 C   0  0  0  0  0  2  0  0  0  0  0  0
    2.9630   46.8030   71.4980 C   0  0  0  0  0  1  0  0  0  0  0  0
    1.9470   47.3480   70.5380 C   0  0  0  0  0  0  0  0  0  0  0  0
    2.0390   47.0920   69.1670 C   0  0  0  0  0  3  0  0  0  0  0  0
    1.0960   47.6260   68.2810 C   0  0  0  0  0  3  0  0  0  0  0  0
    0.0500   48.4300   68.7530 C   0  0  0  0  0  0  0  0  0  0  0  0
   -0.0520   48.6660   70.1290 C   0  0  0  0  0  3  0  0  0  0  0  0
    0.8890   48.1320   71.0130 C   0  0  0  0  0  3  0  0  0  0  0  0
  1 16  1  1  0  0  0
  1 12  1  0  0  0  0
  1  2  1  0  0  0  0
  2  3  1  0  0  0  0
  4  3  1  6  0  0  0
  4 11  1  0  0  0  0
  4  5  1  0  0  0  0
  5 10  1  0  0  0  0
  5  6  1  1  0  0  0
  6  7  2  0  0  0  0
  7  8  1  0  0  0  0
  8 13  1  0  0  0  0
  8 14  1  0  0  0  0
  9  7  1  0  0  0  0
 10  9  1  0  0  0  0
 12 11  1  0  0  0  0
 15 10  1  0  0  0  0
 17 16  1  0  0  0  0
 18 16  1  0  0  0  0
 18 19  1  0  0  0  0
 19 24  1  0  0  0  0
 21 26  1  0  0  0  0
 21 20  1  0  0  0  0
 22 21  2  0  0  0  0
 23 24  2  0  0  0  0
 23 22  1  0  0  0  0
 24 25  1  0  0  0  0
 25 26  2  0  0  0  0
M  END
>  <MODEL>
1

>  <REMARK>
 VINA RESULT:      -9.0      0.000      0.000
  Name = CHEMBL4081105-1111
  6 active torsions:
  status: ('A' for Active; 'I' for Inactive)
    1  A    between atoms: C_1  and  C_2
    2  A    between atoms: C_5  and  C_6
    3  A    between atoms: C_6  and  C_7
    4  A    between atoms: C_7  and  N_8
    5  A    between atoms: N_8  and  C_9
    6  A    between atoms: N_8  and  C_10
                            x       y       z     vdW  Elec       q    Type
                         _______ _______ _______ _____ _____    ______ ____

>  <TORSDO>
F 4

>  <rfscore_v2>
7.27524308674658

>  <vina_affinity>
-8.463122927894224

>  <vina_gauss1>
91.70142479082409

>  <vina_gauss2>
1214.03582199543

>  <vina_repulsion>
0.9751746424797193

>  <vina_hydrophobic>
53.247038196340256

>  <vina_hydrogen>
0.6128900838925874

>  <vina_intra_gauss1>
18.082468093187238

>  <vina_intra_gauss2>
165.68357533587698

>  <vina_intra_repulsion>
0.3689327503769922

>  <vina_intra_hydrophobic>
16.762861617695883

>  <vina_intra_hydrogen>
0.0

>  <vina_num_rotors>
5.0

>  <rfscore_v3>
7.017311880119884

>  <PLEClinear_p5_l1_s65536>
1.8504446946394841

>  <nnscore>
6.408561642048761

$$$$
CHEMBL4081105-1111
 OpenBabel12202021063D

 26 28  0  0  1  0  0  0  0  0999 V2000
   -1.1280   47.4410   68.9020 C   0  0  1  0  0  3  0  0  0  0  0  0
   -0.8480   47.3830   70.4180 C   0  0  0  0  0  2  0  0  0  0  0  0
   -0.9490   45.9320   70.9050 C   0  0  0  0  0  2  0  0  0  0  0  0
   -2.2380   45.3540   70.5180 N   0  0  2  0  0  0  0  0  0  0  0  0
   -2.9560   44.6660   71.4370 C   0  0  1  0  0  3  0  0  0  0  0  0
   -2.8070   44.6400   72.7450 N   0  0  0  0  0  0  0  0  0  0  0  0
   -3.8160   43.8420   73.1710 C   0  0  0  0  0  0  0  0  0  0  0  0
   -3.9810   43.6600   74.4770 N   0  0  0  0  0  0  0  0  0  0  0  0
   -4.6030   43.3490   72.2230 N   0  0  0  0  0  2  0  0  0  0  0  0
   -4.0210   43.8630   71.1270 N   0  0  0  0  0  0  0  0  0  0  0  0
   -2.6160   45.4450   69.1200 C   0  0  0  0  0  2  0  0  0  0  0  0
   -2.5560   46.9020   68.6750 C   0  0  0  0  0  2  0  0  0  0  0  0
   -3.5430   44.3460   75.0780 H   0  0  0  0  0  0  0  0  0  0  0  0
   -4.9030   43.3680   74.7730 H   0  0  0  0  0  0  0  0  0  0  0  0
   -4.3980   43.6350   70.2230 H   0  0  0  0  0  0  0  0  0  0  0  0
   -0.8100   48.7350   68.2440 N   0  0  0  0  0  0  0  0  0  0  0  0
   -1.8560   49.2480   67.3660 C   0  0  0  0  0  1  0  0  0  0  0  0
    0.5040   48.6460   67.5710 C   0  0  0  0  0  2  0  0  0  0  0  0
    0.6790   47.5810   66.4820 C   0  0  0  0  0  2  0  0  0  0  0  0
    2.9160   49.9960   61.6630 C   0  0  0  0  0  1  0  0  0  0  0  0
    2.3310   49.3850   62.9010 C   0  0  0  0  0  0  0  0  0  0  0  0
    1.3640   50.0590   63.6520 C   0  0  0  0  0  3  0  0  0  0  0  0
    0.8430   49.4850   64.8170 C   0  0  0  0  0  3  0  0  0  0  0  0
    1.2860   48.2290   65.2530 C   0  0  0  0  0  0  0  0  0  0  0  0
    2.2380   47.5470   64.4860 C   0  0  0  0  0  3  0  0  0  0  0  0
    2.7580   48.1200   63.3230 C   0  0  0  0  0  3  0  0  0  0  0  0
  1 16  1  1  0  0  0
  1  2  1  0  0  0  0
  2  3  1  0  0  0  0
  4 11  1  6  0  0  0
  4  3  1  0  0  0  0
  4  5  1  0  0  0  0
  5  6  1  1  0  0  0
  6  7  2  0  0  0  0
  7  8  1  0  0  0  0
  8 14  1  0  0  0  0
  8 13  1  0  0  0  0
  9  7  1  0  0  0  0
 10  5  1  0  0  0  0
 10  9  1  0  0  0  0
 12  1  1  0  0  0  0
 12 11  1  0  0  0  0
 15 10  1  0  0  0  0
 17 16  1  0  0  0  0
 18 16  1  0  0  0  0
 19 18  1  0  0  0  0
 20 21  1  0  0  0  0
 21 26  2  0  0  0  0
 21 22  1  0  0  0  0
 22 23  2  0  0  0  0
 23 24  1  0  0  0  0
 24 19  1  0  0  0  0
 25 24  2  0  0  0  0
 26 25  1  0  0  0  0
M  END
>  <MODEL>
2

>  <REMARK>
 VINA RESULT:      -8.5      3.058      4.271
  Name = CHEMBL4081105-1111
  6 active torsions:
  status: ('A' for Active; 'I' for Inactive)
    1  A    between atoms: C_1  and  C_2
    2  A    between atoms: C_5  and  C_6
    3  A    between atoms: C_6  and  C_7
    4  A    between atoms: C_7  and  N_8
    5  A    between atoms: N_8  and  C_9
    6  A    between atoms: N_8  and  C_10
                            x       y       z     vdW  Elec       q    Type
                         _______ _______ _______ _____ _____    ______ ____

>  <TORSDO>
F 4

>  <rfscore_v2>
7.335416243589735

>  <vina_affinity>
-7.964949614471693

>  <vina_gauss1>
73.51895540091422

>  <vina_gauss2>
1220.8683104140719

>  <vina_repulsion>
1.7592276937566225

>  <vina_hydrophobic>
47.420784481680855

>  <vina_hydrogen>
2.0290013801432236

>  <vina_intra_gauss1>
17.520942174507574

>  <vina_intra_gauss2>
124.25000706068158

>  <vina_intra_repulsion>
0.01281074336159583

>  <vina_intra_hydrophobic>
7.885443388631723

>  <vina_intra_hydrogen>
0.0

>  <vina_num_rotors>
5.0

>  <rfscore_v3>
7.0632614701964815

>  <PLEClinear_p5_l1_s65536>
2.2858841360800453

>  <nnscore>
6.230905256747782

$$$$
CHEMBL4081105-1111
 OpenBabel12202021063D

 26 28  0  0  1  0  0  0  0  0999 V2000
   -0.6760   49.1480   67.8380 C   0  0  1  0  0  3  0  0  0  0  0  0
    0.0730   48.4450   68.9900 C   0  0  0  0  0  2  0  0  0  0  0  0
   -0.2260   46.9420   68.9550 C   0  0  0  0  0  2  0  0  0  0  0  0
   -1.6720   46.7100   68.9610 N   0  0  2  0  0  0  0  0  0  0  0  0
   -2.1900   45.7850   69.8030 C   0  0  1  0  0  3  0  0  0  0  0  0
   -1.6220   45.2090   70.8410 N   0  0  0  0  0  0  0  0  0  0  0  0
   -2.5970   44.4170   71.3480 C   0  0  0  0  0  0  0  0  0  0  0  0
   -2.3540   43.7330   72.4610 N   0  0  0  0  0  0  0  0  0  0  0  0
   -3.7560   44.4400   70.7000 N   0  0  0  0  0  2  0  0  0  0  0  0
   -3.4650   45.2950   69.7060 N   0  0  0  0  0  0  0  0  0  0  0  0
   -2.4620   47.4060   67.9610 C   0  0  0  0  0  2  0  0  0  0  0  0
   -2.1840   48.9010   68.0490 C   0  0  0  0  0  2  0  0  0  0  0  0
   -1.5800   44.0630   73.0220 H   0  0  0  0  0  0  0  0  0  0  0  0
   -3.1650   43.4430   72.9920 H   0  0  0  0  0  0  0  0  0  0  0  0
   -4.1700   45.4980   69.0170 H   0  0  0  0  0  0  0  0  0  0  0  0
   -0.2780   50.5580   67.5860 N   0  0  0  0  0  0  0  0  0  0  0  0
   -1.3360   51.5400   67.7960 C   0  0  0  0  0  1  0  0  0  0  0  0
    0.3450   50.6710   66.2490 C   0  0  0  0  0  2  0  0  0  0  0  0
    0.0720   49.5530   65.2360 C   0  0  0  0  0  2  0  0  0  0  0  0
    4.2320   49.4490   61.1440 C   0  0  0  0  0  1  0  0  0  0  0  0
    3.1560   49.4840   62.1880 C   0  0  0  0  0  0  0  0  0  0  0  0
    2.1810   50.4860   62.1860 C   0  0  0  0  0  3  0  0  0  0  0  0
    1.1960   50.5180   63.1790 C   0  0  0  0  0  3  0  0  0  0  0  0
    1.1740   49.5520   64.1940 C   0  0  0  0  0  0  0  0  0  0  0  0
    2.1380   48.5370   64.1800 C   0  0  0  0  0  3  0  0  0  0  0  0
    3.1210   48.5050   63.1880 C   0  0  0  0  0  3  0  0  0  0  0  0
  1 16  1  1  0  0  0
  1 12  1  0  0  0  0
  1  2  1  0  0  0  0
  3  2  1  0  0  0  0
  4  3  1  6  0  0  0
  4 11  1  0  0  0  0
  4  5  1  0  0  0  0
  5  6  1  1  0  0  0
  6  7  2  0  0  0  0
  7  8  1  0  0  0  0
  8 14  1  0  0  0  0
  8 13  1  0  0  0  0
  9  7  1  0  0  0  0
 10  5  1  0  0  0  0
 10  9  1  0  0  0  0
 11 12  1  0  0  0  0
 15 10  1  0  0  0  0
 16 17  1  0  0  0  0
 18 16  1  0  0  0  0
 19 18  1  0  0  0  0
 20 21  1  0  0  0  0
 21 26  1  0  0  0  0
 22 21  2  0  0  0  0
 22 23  1  0  0  0  0
 23 24  2  0  0  0  0
 24 19  1  0  0  0  0
 25 24  1  0  0  0  0
 26 25  2  0  0  0  0
M  END
>  <MODEL>
3

>  <REMARK>
 VINA RESULT:      -8.5      3.704      5.213
  Name = CHEMBL4081105-1111
  6 active torsions:
  status: ('A' for Active; 'I' for Inactive)
    1  A    between atoms: C_1  and  C_2
    2  A    between atoms: C_5  and  C_6
    3  A    between atoms: C_6  and  C_7
    4  A    between atoms: C_7  and  N_8
    5  A    between atoms: N_8  and  C_9
    6  A    between atoms: N_8  and  C_10
                            x       y       z     vdW  Elec       q    Type
                         _______ _______ _______ _____ _____    ______ ____

>  <TORSDO>
F 4

>  <rfscore_v2>
6.994786584027083

>  <vina_affinity>
-7.904751694485014

>  <vina_gauss1>
73.53325407823539

>  <vina_gauss2>
1174.4554444132998

>  <vina_repulsion>
0.5862584180954604

>  <vina_hydrophobic>
46.39302969362555

>  <vina_hydrogen>
0.6865065685144892

>  <vina_intra_gauss1>
14.457585913626541

>  <vina_intra_gauss2>
134.60148391221975

>  <vina_intra_repulsion>
0.03678933704807816

>  <vina_intra_hydrophobic>
8.820698682812973

>  <vina_intra_hydrogen>
0.0

>  <vina_num_rotors>
5.0

>  <rfscore_v3>
6.945930696303702

>  <PLEClinear_p5_l1_s65536>
2.628145210356881

>  <nnscore>
6.405478219567695

$$$$
CHEMBL4081105-1111
 OpenBabel12202021063D

 26 28  0  0  1  0  0  0  0  0999 V2000
   -1.2370   49.5200   66.4440 C   0  0  1  0  0  3  0  0  0  0  0  0
   -1.8210   48.1040   66.2560 C   0  0  0  0  0  2  0  0  0  0  0  0
   -2.6310   47.7130   67.4970 C   0  0  0  0  0  2  0  0  0  0  0  0
   -1.8160   47.8600   68.7050 N   0  0  2  0  0  0  0  0  0  0  0  0
   -1.8030   46.8620   69.6200 C   0  0  1  0  0  3  0  0  0  0  0  0
   -2.2190   45.6200   69.4880 N   0  0  0  0  0  0  0  0  0  0  0  0
   -1.9250   45.0500   70.6800 C   0  0  0  0  0  0  0  0  0  0  0  0
   -2.1700   43.7550   70.8500 N   0  0  0  0  0  0  0  0  0  0  0  0
   -1.3500   45.8440   71.5750 N   0  0  0  0  0  2  0  0  0  0  0  0
   -1.3080   46.9980   70.8890 N   0  0  0  0  0  0  0  0  0  0  0  0
   -1.1580   49.1370   68.9130 C   0  0  0  0  0  2  0  0  0  0  0  0
   -0.3210   49.4800   67.6860 C   0  0  0  0  0  2  0  0  0  0  0  0
   -2.2820   43.2120   70.0040 H   0  0  0  0  0  0  0  0  0  0  0  0
   -1.6430   43.2930   71.5790 H   0  0  0  0  0  0  0  0  0  0  0  0
   -0.9310   47.8170   71.3360 H   0  0  0  0  0  0  0  0  0  0  0  0
   -0.6510   50.1360   65.2260 N   0  0  0  0  0  0  0  0  0  0  0  0
   -1.3320   49.7970   63.9810 C   0  0  0  0  0  1  0  0  0  0  0  0
    0.8010   49.8590   65.1720 C   0  0  0  0  0  2  0  0  0  0  0  0
    1.2590   48.5780   64.4640 C   0  0  0  0  0  2  0  0  0  0  0  0
    5.0360   50.0990   60.2810 C   0  0  0  0  0  1  0  0  0  0  0  0
    4.0750   49.7000   61.3610 C   0  0  0  0  0  0  0  0  0  0  0  0
    4.2860   48.5500   62.1280 C   0  0  0  0  0  3  0  0  0  0  0  0
    3.3690   48.1780   63.1170 C   0  0  0  0  0  3  0  0  0  0  0  0
    2.2220   48.9480   63.3520 C   0  0  0  0  0  0  0  0  0  0  0  0
    2.0250   50.1110   62.5980 C   0  0  0  0  0  3  0  0  0  0  0  0
    2.9410   50.4820   61.6110 C   0  0  0  0  0  3  0  0  0  0  0  0
  1 16  1  6  0  0  0
  1 12  1  0  0  0  0
  2  1  1  0  0  0  0
  2  3  1  0  0  0  0
  4  3  1  1  0  0  0
  4 11  1  0  0  0  0
  4  5  1  0  0  0  0
  5  6  1  6  0  0  0
  5 10  1  0  0  0  0
  6  7  2  0  0  0  0
  7  8  1  0  0  0  0
  7  9  1  0  0  0  0
  8 14  1  0  0  0  0
 10 15  1  0  0  0  0
 10  9  1  0  0  0  0
 12 11  1  0  0  0  0
 13  8  1  0  0  0  0
 17 16  1  0  0  0  0
 18 16  1  0  0  0  0
 19 18  1  0  0  0  0
 20 21  1  0  0  0  0
 21 26  2  0  0  0  0
 21 22  1  0  0  0  0
 22 23  2  0  0  0  0
 23 24  1  0  0  0  0
 24 19  1  0  0  0  0
 25 24  2  0  0  0  0
 26 25  1  0  0  0  0
M  END
>  <MODEL>
4

>  <REMARK>
 VINA RESULT:      -8.3      4.458      6.068
  Name = CHEMBL4081105-1111
  6 active torsions:
  status: ('A' for Active; 'I' for Inactive)
    1  A    between atoms: C_1  and  C_2
    2  A    between atoms: C_5  and  C_6
    3  A    between atoms: C_6  and  C_7
    4  A    between atoms: C_7  and  N_8
    5  A    between atoms: N_8  and  C_9
    6  A    between atoms: N_8  and  C_10
                            x       y       z     vdW  Elec       q    Type
                         _______ _______ _______ _____ _____    ______ ____

>  <TORSDO>
F 4

>  <rfscore_v2>
6.684413647519144

>  <vina_affinity>
-7.839664111294279

>  <vina_gauss1>
67.13007443278318

>  <vina_gauss2>
1175.9900045655768

>  <vina_repulsion>
1.305129619358873

>  <vina_hydrophobic>
52.75450397992141

>  <vina_hydrogen>
1.5663587411390307

>  <vina_intra_gauss1>
18.8528075716275

>  <vina_intra_gauss2>
131.40569645493423

>  <vina_intra_repulsion>
0.1696969543440737

>  <vina_intra_hydrophobic>
8.877509038313425

>  <vina_intra_hydrogen>
0.0

>  <vina_num_rotors>
5.0

>  <rfscore_v3>
6.7674481838716884

>  <PLEClinear_p5_l1_s65536>
1.5269376265733299

>  <nnscore>
6.497408982360513

$$$$
CHEMBL4081105-1111
 OpenBabel12202021063D

 26 28  0  0  1  0  0  0  0  0999 V2000
   -0.6140   51.4360   65.0610 C   0  0  1  0  0  3  0  0  0  0  0  0
   -0.6190   49.9050   65.2610 C   0  0  0  0  0  2  0  0  0  0  0  0
   -1.6650   49.5280   66.3160 C   0  0  0  0  0  2  0  0  0  0  0  0
   -1.4400   50.2850   67.5500 N   0  0  2  0  0  0  0  0  0  0  0  0
   -1.4570   49.6350   68.7370 C   0  0  1  0  0  3  0  0  0  0  0  0
   -1.3890   48.3400   68.9660 N   0  0  0  0  0  0  0  0  0  0  0  0
   -1.3930   48.2480   70.3170 C   0  0  0  0  0  0  0  0  0  0  0  0
   -1.2710   47.0500   70.8790 N   0  0  0  0  0  0  0  0  0  0  0  0
   -1.4640   49.3990   70.9750 N   0  0  0  0  0  2  0  0  0  0  0  0
   -1.5320   50.2650   69.9500 N   0  0  0  0  0  0  0  0  0  0  0  0
   -1.3350   51.7290   67.4350 C   0  0  0  0  0  2  0  0  0  0  0  0
   -0.2550   52.0770   66.4180 C   0  0  0  0  0  2  0  0  0  0  0  0
   -0.8900   46.3220   70.2890 H   0  0  0  0  0  0  0  0  0  0  0  0
   -0.9340   47.0370   71.8330 H   0  0  0  0  0  0  0  0  0  0  0  0
   -1.6190   51.2470   70.1480 H   0  0  0  0  0  0  0  0  0  0  0  0
    0.1580   51.9230   63.8880 N   0  0  0  0  0  0  0  0  0  0  0  0
   -0.5870   52.7930   62.9840 C   0  0  0  0  0  1  0  0  0  0  0  0
    0.7830   50.7790   63.1890 C   0  0  0  0  0  2  0  0  0  0  0  0
    1.8650   51.0850   62.1450 C   0  0  0  0  0  2  0  0  0  0  0  0
    5.5410   46.5590   61.8850 C   0  0  0  0  0  1  0  0  0  0  0  0
    4.6010   47.7260   61.9390 C   0  0  0  0  0  0  0  0  0  0  0  0
    4.7490   48.8150   61.0740 C   0  0  0  0  0  3  0  0  0  0  0  0
    3.8770   49.9060   61.1520 C   0  0  0  0  0  3  0  0  0  0  0  0
    2.8460   49.9290   62.1000 C   0  0  0  0  0  0  0  0  0  0  0  0
    2.6860   48.8280   62.9500 C   0  0  0  0  0  3  0  0  0  0  0  0
    3.5570   47.7380   62.8720 C   0  0  0  0  0  3  0  0  0  0  0  0
  1 16  1  6  0  0  0
  1  2  1  0  0  0  0
  1 12  1  0  0  0  0
  2  3  1  0  0  0  0
  4  3  1  1  0  0  0
  4  5  1  0  0  0  0
  5  6  1  1  0  0  0
  5 10  1  0  0  0  0
  6  7  2  0  0  0  0
  7  8  1  0  0  0  0
  7  9  1  0  0  0  0
  8 14  1  0  0  0  0
 10 15  1  0  0  0  0
 10  9  1  0  0  0  0
 11  4  1  0  0  0  0
 12 11  1  0  0  0  0
 13  8  1  0  0  0  0
 17 16  1  0  0  0  0
 18 16  1  0  0  0  0
 19 18  1  0  0  0  0
 20 21  1  0  0  0  0
 21 26  1  0  0  0  0
 22 23  1  0  0  0  0
 22 21  2  0  0  0  0
 23 24  2  0  0  0  0
 24 19  1  0  0  0  0
 24 25  1  0  0  0  0
 26 25  2  0  0  0  0
M  END
>  <MODEL>
5

>  <REMARK>
 VINA RESULT:      -8.2      5.220      7.366
  Name = CHEMBL4081105-1111
  6 active torsions:
  status: ('A' for Active; 'I' for Inactive)
    1  A    between atoms: C_1  and  C_2
    2  A    between atoms: C_5  and  C_6
    3  A    between atoms: C_6  and  C_7
    4  A    between atoms: C_7  and  N_8
    5  A    between atoms: N_8  and  C_9
    6  A    between atoms: N_8  and  C_10
                            x       y       z     vdW  Elec       q    Type
                         _______ _______ _______ _____ _____    ______ ____

>  <TORSDO>
F 4

>  <rfscore_v2>
7.021055273448771

>  <vina_affinity>
-7.231503598926912

>  <vina_gauss1>
74.82066347109729

>  <vina_gauss2>
1084.5597788371854

>  <vina_repulsion>
0.9904588083767251

>  <vina_hydrophobic>
50.37504715865198

>  <vina_hydrogen>
0.2565512214818723

>  <vina_intra_gauss1>
13.121572665491858

>  <vina_intra_gauss2>
137.42200169360797

>  <vina_intra_repulsion>
0.0

>  <vina_intra_hydrophobic>
10.006973433709275

>  <vina_intra_hydrogen>
0.0

>  <vina_num_rotors>
5.0

>  <rfscore_v3>
6.7042253363858455

>  <PLEClinear_p5_l1_s65536>
2.136743328622081

>  <nnscore>
6.871965092252914

$$$$
CHEMBL4081105-1111
 OpenBabel12202021063D

 26 28  0  0  1  0  0  0  0  0999 V2000
   -4.4820   49.0260   66.9750 C   0  0  1  0  0  3  0  0  0  0  0  0
   -4.3500   49.0430   68.5120 C   0  0  0  0  0  2  0  0  0  0  0  0
   -3.0190   49.6920   68.9070 C   0  0  0  0  0  2  0  0  0  0  0  0
   -1.9060   49.0270   68.2260 N   0  0  2  0  0  0  0  0  0  0  0  0
   -0.8080   48.6770   68.9370 C   0  0  1  0  0  3  0  0  0  0  0  0
   -0.6650   48.6040   70.2430 N   0  0  0  0  0  0  0  0  0  0  0  0
    0.6040   48.1580   70.4070 C   0  0  0  0  0  0  0  0  0  0  0  0
    1.0450   47.9160   71.6370 N   0  0  0  0  0  0  0  0  0  0  0  0
    1.2900   47.9440   69.2910 N   0  0  0  0  0  2  0  0  0  0  0  0
    0.3820   48.3080   68.3700 N   0  0  0  0  0  0  0  0  0  0  0  0
   -1.9940   48.8920   66.7820 C   0  0  0  0  0  2  0  0  0  0  0  0
   -3.3020   48.2000   66.4190 C   0  0  0  0  0  2  0  0  0  0  0  0
    0.3340   47.7940   72.3450 H   0  0  0  0  0  0  0  0  0  0  0  0
    1.8280   47.2800   71.7120 H   0  0  0  0  0  0  0  0  0  0  0  0
    0.6350   48.2720   67.3970 H   0  0  0  0  0  0  0  0  0  0  0  0
   -5.8270   48.6700   66.4530 N   0  0  0  0  0  0  0  0  0  0  0  0
   -6.7020   49.8060   66.1890 C   0  0  0  0  0  1  0  0  0  0  0  0
   -6.4560   47.6620   67.3350 C   0  0  0  0  0  2  0  0  0  0  0  0
   -6.6320   46.2420   66.7850 C   0  0  0  0  0  2  0  0  0  0  0  0
   -5.9090   42.5240   71.2260 C   0  0  0  0  0  1  0  0  0  0  0  0
   -6.1080   43.4770   70.0850 C   0  0  0  0  0  0  0  0  0  0  0  0
   -7.2690   43.4390   69.3070 C   0  0  0  0  0  3  0  0  0  0  0  0
   -7.4310   44.3190   68.2320 C   0  0  0  0  0  3  0  0  0  0  0  0
   -6.4310   45.2480   67.9130 C   0  0  0  0  0  0  0  0  0  0  0  0
   -5.2800   45.2980   68.7080 C   0  0  0  0  0  3  0  0  0  0  0  0
   -5.1180   44.4200   69.7820 C   0  0  0  0  0  3  0  0  0  0  0  0
  1 16  1  1  0  0  0
  1  2  1  0  0  0  0
  2  3  1  0  0  0  0
  4 11  1  6  0  0  0
  4  3  1  0  0  0  0
  4  5  1  0  0  0  0
  5  6  1  6  0  0  0
  6  7  2  0  0  0  0
  7  8  1  0  0  0  0
  8 14  1  0  0  0  0
  8 13  1  0  0  0  0
  9  7  1  0  0  0  0
 10  5  1  0  0  0  0
 10  9  1  0  0  0  0
 12 11  1  0  0  0  0
 12  1  1  0  0  0  0
 15 10  1  0  0  0  0
 16 18  1  0  0  0  0
 17 16  1  0  0  0  0
 19 18  1  0  0  0  0
 19 24  1  0  0  0  0
 21 20  1  0  0  0  0
 22 21  2  0  0  0  0
 23 22  1  0  0  0  0
 24 23  2  0  0  0  0
 24 25  1  0  0  0  0
 25 26  2  0  0  0  0
 26 21  1  0  0  0  0
M  END
>  <MODEL>
6

>  <REMARK>
 VINA RESULT:      -7.7      3.631      6.817
  Name = CHEMBL4081105-1111
  6 active torsions:
  status: ('A' for Active; 'I' for Inactive)
    1  A    between atoms: C_1  and  C_2
    2  A    between atoms: C_5  and  C_6
    3  A    between atoms: C_6  and  C_7
    4  A    between atoms: C_7  and  N_8
    5  A    between atoms: N_8  and  C_9
    6  A    between atoms: N_8  and  C_10
                            x       y       z     vdW  Elec       q    Type
                         _______ _______ _______ _____ _____    ______ ____

>  <TORSDO>
F 4

>  <rfscore_v2>
6.915823222832723

>  <vina_affinity>
-7.173007577592535

>  <vina_gauss1>
59.390720903493076

>  <vina_gauss2>
1065.752349204399

>  <vina_repulsion>
0.4004163359032108

>  <vina_hydrophobic>
44.8895082262281

>  <vina_hydrogen>
0.7125187246974285

>  <vina_intra_gauss1>
18.839265806480817

>  <vina_intra_gauss2>
174.4951779299713

>  <vina_intra_repulsion>
0.0

>  <vina_intra_hydrophobic>
16.127413473728797

>  <vina_intra_hydrogen>
0.0

>  <vina_num_rotors>
5.0

>  <rfscore_v3>
6.638166613164621

>  <PLEClinear_p5_l1_s65536>
1.7059931532745376

>  <nnscore>
6.740500099993859

$$$$
CHEMBL4081105-1111
 OpenBabel12202021063D

 26 28  0  0  1  0  0  0  0  0999 V2000
    2.9400   48.9600   62.6770 C   0  0  1  0  0  3  0  0  0  0  0  0
    3.4340   47.5160   62.4500 C   0  0  0  0  0  2  0  0  0  0  0  0
    4.8530   47.5430   61.8710 C   0  0  0  0  0  2  0  0  0  0  0  0
    4.8960   48.3780   60.6680 N   0  0  2  0  0  0  0  0  0  0  0  0
    5.5200   47.9120   59.5610 C   0  0  1  0  0  3  0  0  0  0  0  0
    5.8960   46.6810   59.2860 N   0  0  0  0  0  0  0  0  0  0  0  0
    6.4170   46.7710   58.0390 C   0  0  0  0  0  0  0  0  0  0  0  0
    6.8390   45.6630   57.4390 N   0  0  0  0  0  0  0  0  0  0  0  0
    6.4060   47.9810   57.4930 N   0  0  0  0  0  2  0  0  0  0  0  0
    5.8580   48.6950   58.4900 N   0  0  0  0  0  0  0  0  0  0  0  0
    4.3670   49.7270   60.7750 C   0  0  0  0  0  2  0  0  0  0  0  0
    2.9400   49.6690   61.3060 C   0  0  0  0  0  2  0  0  0  0  0  0
    6.4830   44.7940   57.8140 H   0  0  0  0  0  0  0  0  0  0  0  0
    6.8900   45.6940   56.4290 H   0  0  0  0  0  0  0  0  0  0  0  0
    5.7400   49.6870   58.3690 H   0  0  0  0  0  0  0  0  0  0  0  0
    1.6930   49.0900   63.4750 N   0  0  0  0  0  0  0  0  0  0  0  0
    1.0370   50.3890   63.3790 C   0  0  0  0  0  1  0  0  0  0  0  0
    1.9480   48.6840   64.8740 C   0  0  0  0  0  2  0  0  0  0  0  0
    1.0620   47.5840   65.4710 C   0  0  0  0  0  2  0  0  0  0  0  0
    0.5570   48.2920   71.2430 C   0  0  0  0  0  1  0  0  0  0  0  0
    0.6930   48.0980   69.7620 C   0  0  0  0  0  0  0  0  0  0  0  0
    1.5840   47.1580   69.2350 C   0  0  0  0  0  3  0  0  0  0  0  0
    1.7160   47.0040   67.8510 C   0  0  0  0  0  3  0  0  0  0  0  0
    0.9630   47.7920   66.9700 C   0  0  0  0  0  0  0  0  0  0  0  0
    0.0550   48.7160   67.5010 C   0  0  0  0  0  3  0  0  0  0  0  0
   -0.0770   48.8700   68.8830 C   0  0  0  0  0  3  0  0  0  0  0  0
  1 16  1  6  0  0  0
  2  1  1  0  0  0  0
  3  2  1  0  0  0  0
  4 11  1  1  0  0  0
  4  3  1  0  0  0  0
  5  6  1  6  0  0  0
  5  4  1  0  0  0  0
  7  6  2  0  0  0  0
  8 13  1  0  0  0  0
  8  7  1  0  0  0  0
  9  7  1  0  0  0  0
  9 10  1  0  0  0  0
 10  5  1  0  0  0  0
 11 12  1  0  0  0  0
 12  1  1  0  0  0  0
 14  8  1  0  0  0  0
 15 10  1  0  0  0  0
 16 18  1  0  0  0  0
 17 16  1  0  0  0  0
 18 19  1  0  0  0  0
 19 24  1  0  0  0  0
 21 20  1  0  0  0  0
 22 21  1  0  0  0  0
 23 22  2  0  0  0  0
 24 25  2  0  0  0  0
 24 23  1  0  0  0  0
 25 26  1  0  0  0  0
 26 21  2  0  0  0  0
M  END
>  <MODEL>
7

>  <REMARK>
 VINA RESULT:      -7.6      7.761     11.451
  Name = CHEMBL4081105-1111
  6 active torsions:
  status: ('A' for Active; 'I' for Inactive)
    1  A    between atoms: C_1  and  C_2
    2  A    between atoms: C_5  and  C_6
    3  A    between atoms: C_6  and  C_7
    4  A    between atoms: C_7  and  N_8
    5  A    between atoms: N_8  and  C_9
    6  A    between atoms: N_8  and  C_10
                            x       y       z     vdW  Elec       q    Type
                         _______ _______ _______ _____ _____    ______ ____

>  <TORSDO>
F 4

>  <rfscore_v2>
6.544738130425123

>  <vina_affinity>
-7.2926986596693

>  <vina_gauss1>
73.20494994437306

>  <vina_gauss2>
1089.6160151023128

>  <vina_repulsion>
0.7424549941863156

>  <vina_hydrophobic>
51.87921244420115

>  <vina_hydrogen>
0.0

>  <vina_intra_gauss1>
11.485503231453059

>  <vina_intra_gauss2>
117.67200930053849

>  <vina_intra_repulsion>
0.0

>  <vina_intra_hydrophobic>
6.7210553650779765

>  <vina_intra_hydrogen>
0.0

>  <vina_num_rotors>
5.0

>  <rfscore_v3>
6.162189036186037

>  <PLEClinear_p5_l1_s65536>
1.8384707292390898

>  <nnscore>
6.39005064261559

$$$$
CHEMBL4081105-1111
 OpenBabel12202021063D

 26 28  0  0  1  0  0  0  0  0999 V2000
    1.2640   49.3720   63.9270 C   0  0  1  0  0  3  0  0  0  0  0  0
    1.6490   48.6940   65.2590 C   0  0  0  0  0  2  0  0  0  0  0  0
    0.3920   48.1330   65.9330 C   0  0  0  0  0  2  0  0  0  0  0  0
   -0.6210   49.1820   66.0740 N   0  0  2  0  0  0  0  0  0  0  0  0
   -1.2580   49.3310   67.2600 C   0  0  1  0  0  3  0  0  0  0  0  0
   -0.9310   48.8370   68.4350 N   0  0  0  0  0  0  0  0  0  0  0  0
   -1.8720   49.3390   69.2710 C   0  0  0  0  0  0  0  0  0  0  0  0
   -1.7850   49.0710   70.5700 N   0  0  0  0  0  0  0  0  0  0  0  0
   -2.7870   50.1200   68.7100 N   0  0  0  0  0  2  0  0  0  0  0  0
   -2.3930   50.0770   67.4260 N   0  0  0  0  0  0  0  0  0  0  0  0
   -0.9780   49.9280   64.8810 C   0  0  0  0  0  2  0  0  0  0  0  0
    0.2820   50.5160   64.2580 C   0  0  0  0  0  2  0  0  0  0  0  0
   -0.8780   48.7650   70.8980 H   0  0  0  0  0  0  0  0  0  0  0  0
   -2.2620   49.7120   71.1900 H   0  0  0  0  0  0  0  0  0  0  0  0
   -2.9290   50.5750   66.7360 H   0  0  0  0  0  0  0  0  0  0  0  0
    2.4020   49.7280   63.0400 N   0  0  0  0  0  0  0  0  0  0  0  0
    2.0350   50.4890   61.8510 C   0  0  0  0  0  1  0  0  0  0  0  0
    3.1870   48.5160   62.7190 C   0  0  0  0  0  2  0  0  0  0  0  0
    4.6170   48.7080   62.2000 C   0  0  0  0  0  2  0  0  0  0  0  0
    6.1400   44.2590   58.7420 C   0  0  0  0  0  1  0  0  0  0  0  0
    5.7520   45.3950   59.6420 C   0  0  0  0  0  0  0  0  0  0  0  0
    5.5690   45.2000   61.0140 C   0  0  0  0  0  3  0  0  0  0  0  0
    5.1850   46.2640   61.8370 C   0  0  0  0  0  3  0  0  0  0  0  0
    4.9740   47.5410   61.3000 C   0  0  0  0  0  0  0  0  0  0  0  0
    5.1810   47.7390   59.9290 C   0  0  0  0  0  3  0  0  0  0  0  0
    5.5640   46.6760   59.1070 C   0  0  0  0  0  3  0  0  0  0  0  0
  1 16  1  1  0  0  0
  1 12  1  0  0  0  0
  1  2  1  0  0  0  0
  2  3  1  0  0  0  0
  4  3  1  6  0  0  0
  4 11  1  0  0  0  0
  4  5  1  0  0  0  0
  5 10  1  0  0  0  0
  5  6  1  1  0  0  0
  6  7  2  0  0  0  0
  7  8  1  0  0  0  0
  8 13  1  0  0  0  0
  8 14  1  0  0  0  0
  9  7  1  0  0  0  0
 10  9  1  0  0  0  0
 12 11  1  0  0  0  0
 15 10  1  0  0  0  0
 17 16  1  0  0  0  0
 18 16  1  0  0  0  0
 19 18  1  0  0  0  0
 20 21  1  0  0  0  0
 21 22  1  0  0  0  0
 22 23  2  0  0  0  0
 24 23  1  0  0  0  0
 24 19  1  0  0  0  0
 25 24  2  0  0  0  0
 26 21  2  0  0  0  0
 26 25  1  0  0  0  0
M  END
>  <MODEL>
8

>  <REMARK>
 VINA RESULT:      -7.4      6.338      8.664
  Name = CHEMBL4081105-1111
  6 active torsions:
  status: ('A' for Active; 'I' for Inactive)
    1  A    between atoms: C_1  and  C_2
    2  A    between atoms: C_5  and  C_6
    3  A    between atoms: C_6  and  C_7
    4  A    between atoms: C_7  and  N_8
    5  A    between atoms: N_8  and  C_9
    6  A    between atoms: N_8  and  C_10
                            x       y       z     vdW  Elec       q    Type
                         _______ _______ _______ _____ _____    ______ ____

>  <TORSDO>
F 4

>  <rfscore_v2>
6.27844445904096

>  <vina_affinity>
-7.008524263794481

>  <vina_gauss1>
52.66638725717828

>  <vina_gauss2>
1125.694450625656

>  <vina_repulsion>
0.6127789563496893

>  <vina_hydrophobic>
44.315945415101154

>  <vina_hydrogen>
0.5694301509951012

>  <vina_intra_gauss1>
10.893026052834557

>  <vina_intra_gauss2>
119.79571655477767

>  <vina_intra_repulsion>
0.0

>  <vina_intra_hydrophobic>
6.233557618316876

>  <vina_intra_hydrogen>
0.0

>  <vina_num_rotors>
5.0

>  <rfscore_v3>
6.51065716683317

>  <PLEClinear_p5_l1_s65536>
2.1765537377005244

>  <nnscore>
6.139298696436313

$$$$
CHEMBL4081105-1111
 OpenBabel12202021063D

 26 28  0  0  1  0  0  0  0  0999 V2000
   -6.3710   48.4270   66.5540 C   0  0  1  0  0  3  0  0  0  0  0  0
   -5.9700   49.7960   65.9650 C   0  0  0  0  0  2  0  0  0  0  0  0
   -4.4630   50.0120   66.1460 C   0  0  0  0  0  2  0  0  0  0  0  0
   -4.0890   49.8400   67.5520 N   0  0  2  0  0  0  0  0  0  0  0  0
   -3.2850   50.7570   68.1400 C   0  0  1  0  0  3  0  0  0  0  0  0
   -2.9700   51.9630   67.7190 N   0  0  0  0  0  0  0  0  0  0  0  0
   -2.1880   52.4590   68.7080 C   0  0  0  0  0  0  0  0  0  0  0  0
   -1.7470   53.7090   68.6110 N   0  0  0  0  0  0  0  0  0  0  0  0
   -1.9740   51.6480   69.7370 N   0  0  0  0  0  2  0  0  0  0  0  0
   -2.6580   50.5620   69.3410 N   0  0  0  0  0  0  0  0  0  0  0  0
   -4.5070   48.6130   68.2070 C   0  0  0  0  0  2  0  0  0  0  0  0
   -6.0140   48.4470   68.0550 C   0  0  0  0  0  2  0  0  0  0  0  0
   -2.2510   54.3070   67.9700 H   0  0  0  0  0  0  0  0  0  0  0  0
   -1.4770   54.1550   69.4790 H   0  0  0  0  0  0  0  0  0  0  0  0
   -2.6590   49.7470   69.9300 H   0  0  0  0  0  0  0  0  0  0  0  0
   -7.7440   47.9670   66.2190 N   0  0  0  0  0  0  0  0  0  0  0  0
   -8.7810   48.9830   66.3590 C   0  0  0  0  0  1  0  0  0  0  0  0
   -8.0550   46.7300   66.9680 C   0  0  0  0  0  2  0  0  0  0  0  0
   -7.1680   45.5040   66.7230 C   0  0  0  0  0  2  0  0  0  0  0  0
   -5.4530   43.4890   71.9260 C   0  0  0  0  0  1  0  0  0  0  0  0
   -5.9060   44.0080   70.5930 C   0  0  0  0  0  0  0  0  0  0  0  0
   -7.2580   44.0000   70.2370 C   0  0  0  0  0  3  0  0  0  0  0  0
   -7.6640   44.4660   68.9820 C   0  0  0  0  0  3  0  0  0  0  0  0
   -6.7230   44.9440   68.0600 C   0  0  0  0  0  0  0  0  0  0  0  0
   -5.3720   44.9710   68.4280 C   0  0  0  0  0  3  0  0  0  0  0  0
   -4.9670   44.5060   69.6820 C   0  0  0  0  0  3  0  0  0  0  0  0
  1 16  1  1  0  0  0
  1 12  1  0  0  0  0
  2  3  1  0  0  0  0
  2  1  1  0  0  0  0
  4  3  1  6  0  0  0
  4  5  1  0  0  0  0
  4 11  1  0  0  0  0
  5  6  1  1  0  0  0
  5 10  1  0  0  0  0
  6  7  2  0  0  0  0
  7  9  1  0  0  0  0
  8  7  1  0  0  0  0
  8 14  1  0  0  0  0
 10  9  1  0  0  0  0
 10 15  1  0  0  0  0
 12 11  1  0  0  0  0
 13  8  1  0  0  0  0
 16 17  1  0  0  0  0
 16 18  1  0  0  0  0
 19 18  1  0  0  0  0
 19 24  1  0  0  0  0
 21 20  1  0  0  0  0
 22 21  1  0  0  0  0
 23 22  2  0  0  0  0
 24 25  2  0  0  0  0
 24 23  1  0  0  0  0
 25 26  1  0  0  0  0
 26 21  2  0  0  0  0
M  END
>  <MODEL>
9

>  <REMARK>
 VINA RESULT:      -7.3      5.092      7.650
  Name = CHEMBL4081105-1111
  6 active torsions:
  status: ('A' for Active; 'I' for Inactive)
    1  A    between atoms: C_1  and  C_2
    2  A    between atoms: C_5  and  C_6
    3  A    between atoms: C_6  and  C_7
    4  A    between atoms: C_7  and  N_8
    5  A    between atoms: N_8  and  C_9
    6  A    between atoms: N_8  and  C_10
                            x       y       z     vdW  Elec       q    Type
                         _______ _______ _______ _____ _____    ______ ____

>  <TORSDO>
F 4

>  <rfscore_v2>
6.7355762976468005

>  <vina_affinity>
-6.511677184452053

>  <vina_gauss1>
66.3563376495084

>  <vina_gauss2>
1032.3158517125632

>  <vina_repulsion>
1.1030029901851066

>  <vina_hydrophobic>
43.07190128077444

>  <vina_hydrogen>
0.24191843704473534

>  <vina_intra_gauss1>
22.361300396640708

>  <vina_intra_gauss2>
160.6736121842064

>  <vina_intra_repulsion>
0.5010924685859028

>  <vina_intra_hydrophobic>
15.80309949821125

>  <vina_intra_hydrogen>
0.0

>  <vina_num_rotors>
5.0

>  <rfscore_v3>
6.626182138932967

>  <PLEClinear_p5_l1_s65536>
2.2412034717569305

>  <nnscore>
6.771135784644327

$$$$
