CHEMBL1215473-5450
 OpenBabel12202021073D

 25 27  0  0  0  0  0  0  0  0999 V2000
   -4.6960   43.5780   70.4580 N   0  0  0  0  0  0  0  0  0  0  0  0
   -3.5070   44.1700   70.4760 C   0  0  0  0  0  0  0  0  0  0  0  0
   -2.5100   43.8670   71.2990 N   0  0  0  0  0  0  0  0  0  0  0  0
   -1.5910   44.7710   70.9270 N   0  0  0  0  0  0  0  0  0  0  0  0
   -2.0340   45.5540   69.8950 C   0  0  0  0  0  0  0  0  0  0  0  0
   -1.3220   46.5840   69.3780 N   0  0  0  0  0  0  0  0  0  0  0  0
    0.1190   46.7710   69.5480 C   0  0  0  0  0  2  0  0  0  0  0  0
    0.4380   48.2660   69.8100 C   0  0  0  0  0  2  0  0  0  0  0  0
   -0.1430   49.2150   68.8280 N   0  0  0  0  0  0  0  0  0  0  0  0
   -1.6020   48.9370   68.7370 C   0  0  0  0  0  2  0  0  0  0  0  0
   -1.9630   47.4710   68.4020 C   0  0  0  0  0  2  0  0  0  0  0  0
   -3.2540   45.1700   69.5930 N   0  0  0  0  0  0  0  0  0  0  0  0
   -4.7880   42.6960   70.9390 H   0  0  0  0  0  0  0  0  0  0  0  0
   -5.2630   43.6890   69.6290 H   0  0  0  0  0  0  0  0  0  0  0  0
   -0.7230   44.8330   71.4390 H   0  0  0  0  0  0  0  0  0  0  0  0
    0.5490   49.1140   67.5280 C   0  0  0  0  0  2  0  0  0  0  0  0
   -0.2310   49.7590   66.3760 C   0  0  0  0  0  2  0  0  0  0  0  0
   -0.3240   48.8420   65.2840 O   0  0  0  0  0  0  0  0  0  0  0  0
    0.7760   48.7960   64.4660 C   0  0  0  0  0  0  0  0  0  0  0  0
    1.2440   49.8440   63.6690 C   0  0  0  0  0  3  0  0  0  0  0  0
    2.3950   49.6840   62.8920 C   0  0  0  0  0  3  0  0  0  0  0  0
    3.0790   48.4700   62.9130 C   0  0  0  0  0  0  0  0  0  0  0  0
    4.6490   48.2650   61.8830 Br  0  0  0  0  0  0  0  0  0  0  0  0
    2.6140   47.4130   63.6910 C   0  0  0  0  0  3  0  0  0  0  0  0
    1.4620   47.5770   64.4650 C   0  0  0  0  0  3  0  0  0  0  0  0
  1  2  1  0  0  0  0
  1 13  1  0  0  0  0
  2  3  2  0  0  0  0
  4  3  1  0  0  0  0
  4 15  1  0  0  0  0
  5  4  1  0  0  0  0
  6  7  1  0  0  0  0
  6  5  1  0  0  0  0
  7  8  1  0  0  0  0
  9  8  1  0  0  0  0
 10  9  1  0  0  0  0
 11 10  1  0  0  0  0
 11  6  1  0  0  0  0
 12  5  2  0  0  0  0
 12  2  1  0  0  0  0
 14  1  1  0  0  0  0
 16  9  1  0  0  0  0
 17 16  1  0  0  0  0
 18 17  1  0  0  0  0
 19 18  1  0  0  0  0
 20 19  2  0  0  0  0
 21 22  2  0  0  0  0
 21 20  1  0  0  0  0
 22 24  1  0  0  0  0
 23 22  1  0  0  0  0
 24 25  2  0  0  0  0
 25 19  1  0  0  0  0
M  END
>  <MODEL>
1

>  <REMARK>
 VINA RESULT:      -8.0      0.000      0.000
  Name = CHEMBL1215473-5450
  4 active torsions:
  status: ('A' for Active; 'I' for Inactive)
    1  A    between atoms: N_9  and  C_10
    2  A    between atoms: C_10  and  C_11
    3  A    between atoms: C_11  and  O_12
    4  A    between atoms: O_12  and  C_13
                            x       y       z     vdW  Elec       q    Type
                         _______ _______ _______ _____ _____    ______ ____

>  <TORSDO>
F 4

>  <rfscore_v2>
6.459119254689757

>  <vina_affinity>
-7.588546319743232

>  <vina_gauss1>
77.0001963804421

>  <vina_gauss2>
1151.7050483637897

>  <vina_repulsion>
0.9533939886886071

>  <vina_hydrophobic>
28.448103558187

>  <vina_hydrogen>
1.5783877226120926

>  <vina_intra_gauss1>
16.913339763952067

>  <vina_intra_gauss2>
131.02571119314894

>  <vina_intra_repulsion>
0.298465691796555

>  <vina_intra_hydrophobic>
0.0

>  <vina_intra_hydrogen>
0.0

>  <vina_num_rotors>
5.0

>  <rfscore_v3>
6.670599712970042

>  <PLEClinear_p5_l1_s65536>
4.867833951898222

>  <nnscore>
6.27554504944232

$$$$
CHEMBL1215473-5450
 OpenBabel12202021073D

 25 27  0  0  0  0  0  0  0  0999 V2000
   -4.6190   43.6100   70.8310 N   0  0  0  0  0  0  0  0  0  0  0  0
   -3.4200   44.1770   70.7570 C   0  0  0  0  0  0  0  0  0  0  0  0
   -2.3740   43.8630   71.5110 N   0  0  0  0  0  0  0  0  0  0  0  0
   -1.4650   44.7420   71.0620 N   0  0  0  0  0  0  0  0  0  0  0  0
   -1.9640   45.5220   70.0530 C   0  0  0  0  0  0  0  0  0  0  0  0
   -1.2700   46.5300   69.4730 N   0  0  0  0  0  0  0  0  0  0  0  0
    0.1830   46.6890   69.5390 C   0  0  0  0  0  2  0  0  0  0  0  0
    0.5500   48.1790   69.7570 C   0  0  0  0  0  2  0  0  0  0  0  0
   -0.0800   49.1280   68.8050 N   0  0  0  0  0  0  0  0  0  0  0  0
   -1.5470   48.8800   68.8210 C   0  0  0  0  0  2  0  0  0  0  0  0
   -1.9610   47.4180   68.5330 C   0  0  0  0  0  2  0  0  0  0  0  0
   -3.2100   45.1600   69.8440 N   0  0  0  0  0  0  0  0  0  0  0  0
   -4.6940   42.7360   71.3300 H   0  0  0  0  0  0  0  0  0  0  0  0
   -5.2420   43.7230   70.0430 H   0  0  0  0  0  0  0  0  0  0  0  0
   -0.5620   44.7920   71.5110 H   0  0  0  0  0  0  0  0  0  0  0  0
    0.5150   48.9960   67.4610 C   0  0  0  0  0  2  0  0  0  0  0  0
   -0.4020   49.5010   66.3400 C   0  0  0  0  0  2  0  0  0  0  0  0
   -0.4120   48.5600   65.2650 O   0  0  0  0  0  0  0  0  0  0  0  0
    0.7460   48.4970   64.5340 C   0  0  0  0  0  0  0  0  0  0  0  0
    1.5980   47.3920   64.4490 C   0  0  0  0  0  3  0  0  0  0  0  0
    2.7420   47.4400   63.6470 C   0  0  0  0  0  3  0  0  0  0  0  0
    3.0360   48.5980   62.9310 C   0  0  0  0  0  0  0  0  0  0  0  0
    4.5690   48.6500   61.8290 Br  0  0  0  0  0  0  0  0  0  0  0  0
    2.2040   49.7110   63.0190 C   0  0  0  0  0  3  0  0  0  0  0  0
    1.0610   49.6600   63.8220 C   0  0  0  0  0  3  0  0  0  0  0  0
  1 13  1  0  0  0  0
  2  1  1  0  0  0  0
  2  3  2  0  0  0  0
  4 15  1  0  0  0  0
  4  3  1  0  0  0  0
  5  4  1  0  0  0  0
  6  7  1  0  0  0  0
  6  5  1  0  0  0  0
  7  8  1  0  0  0  0
  9 10  1  0  0  0  0
  9  8  1  0  0  0  0
 11 10  1  0  0  0  0
 11  6  1  0  0  0  0
 12  5  2  0  0  0  0
 12  2  1  0  0  0  0
 14  1  1  0  0  0  0
 16  9  1  0  0  0  0
 17 16  1  0  0  0  0
 18 17  1  0  0  0  0
 19 18  1  0  0  0  0
 20 19  1  0  0  0  0
 21 20  2  0  0  0  0
 22 24  2  0  0  0  0
 22 21  1  0  0  0  0
 23 22  1  0  0  0  0
 24 25  1  0  0  0  0
 25 19  2  0  0  0  0
M  END
>  <MODEL>
2

>  <REMARK>
 VINA RESULT:      -7.9      0.235      1.051
  Name = CHEMBL1215473-5450
  4 active torsions:
  status: ('A' for Active; 'I' for Inactive)
    1  A    between atoms: N_9  and  C_10
    2  A    between atoms: C_10  and  C_11
    3  A    between atoms: C_11  and  O_12
    4  A    between atoms: O_12  and  C_13
                            x       y       z     vdW  Elec       q    Type
                         _______ _______ _______ _____ _____    ______ ____

>  <TORSDO>
F 4

>  <rfscore_v2>
6.42420250505051

>  <vina_affinity>
-7.530782478226912

>  <vina_gauss1>
76.0252149380756

>  <vina_gauss2>
1163.3898264227762

>  <vina_repulsion>
1.0972380527378736

>  <vina_hydrophobic>
27.931167996026787

>  <vina_hydrogen>
1.6443665495920636

>  <vina_intra_gauss1>
17.554633167622484

>  <vina_intra_gauss2>
131.33680018853804

>  <vina_intra_repulsion>
0.4248512250043621

>  <vina_intra_hydrophobic>
0.0

>  <vina_intra_hydrogen>
0.0

>  <vina_num_rotors>
5.0

>  <rfscore_v3>
6.639400229564561

>  <PLEClinear_p5_l1_s65536>
5.103173234948831

>  <nnscore>
6.032177349147058

$$$$
CHEMBL1215473-5450
 OpenBabel12202021073D

 25 27  0  0  0  0  0  0  0  0999 V2000
    2.6760   46.3490   70.5530 N   0  0  0  0  0  0  0  0  0  0  0  0
    1.7270   47.2530   70.3380 C   0  0  0  0  0  0  0  0  0  0  0  0
    1.0210   47.8650   71.2810 N   0  0  0  0  0  0  0  0  0  0  0  0
    0.2000   48.6190   70.5350 N   0  0  0  0  0  0  0  0  0  0  0  0
    0.4480   48.4710   69.1960 C   0  0  0  0  0  0  0  0  0  0  0  0
   -0.2840   49.0730   68.2290 N   0  0  0  0  0  0  0  0  0  0  0  0
   -1.1540   50.2300   68.4380 C   0  0  0  0  0  2  0  0  0  0  0  0
   -2.4750   50.0580   67.6450 C   0  0  0  0  0  2  0  0  0  0  0  0
   -2.3080   49.7290   66.2080 N   0  0  0  0  0  0  0  0  0  0  0  0
   -1.4140   48.5450   66.1140 C   0  0  0  0  0  2  0  0  0  0  0  0
   -0.0510   48.7030   66.8280 C   0  0  0  0  0  2  0  0  0  0  0  0
    1.4300   47.6080   69.0620 N   0  0  0  0  0  0  0  0  0  0  0  0
    3.0500   46.2740   71.4880 H   0  0  0  0  0  0  0  0  0  0  0  0
    3.3270   46.1630   69.8020 H   0  0  0  0  0  0  0  0  0  0  0  0
   -0.5230   49.1590   70.9870 H   0  0  0  0  0  0  0  0  0  0  0  0
   -1.8050   50.8970   65.4580 C   0  0  0  0  0  2  0  0  0  0  0  0
   -1.3460   50.5500   64.0360 C   0  0  0  0  0  2  0  0  0  0  0  0
   -0.4780   51.5740   63.5470 O   0  0  0  0  0  0  0  0  0  0  0  0
    0.6640   51.1280   62.9330 C   0  0  0  0  0  0  0  0  0  0  0  0
    1.2930   51.7340   61.8420 C   0  0  0  0  0  3  0  0  0  0  0  0
    2.4720   51.1970   61.3160 C   0  0  0  0  0  3  0  0  0  0  0  0
    3.0210   50.0480   61.8840 C   0  0  0  0  0  0  0  0  0  0  0  0
    4.6270   49.3400   61.1870 Br  0  0  0  0  0  0  0  0  0  0  0  0
    2.3950   49.4270   62.9600 C   0  0  0  0  0  3  0  0  0  0  0  0
    1.2160   49.9660   63.4820 C   0  0  0  0  0  3  0  0  0  0  0  0
  1 13  1  0  0  0  0
  2  1  1  0  0  0  0
  2  3  2  0  0  0  0
  4 15  1  0  0  0  0
  4  3  1  0  0  0  0
  5  4  1  0  0  0  0
  6  7  1  0  0  0  0
  6  5  1  0  0  0  0
  8  7  1  0  0  0  0
  9  8  1  0  0  0  0
 10  9  1  0  0  0  0
 10 11  1  0  0  0  0
 11  6  1  0  0  0  0
 12  5  2  0  0  0  0
 12  2  1  0  0  0  0
 14  1  1  0  0  0  0
 16  9  1  0  0  0  0
 17 16  1  0  0  0  0
 18 17  1  0  0  0  0
 19 25  1  0  0  0  0
 19 18  1  0  0  0  0
 20 19  2  0  0  0  0
 21 20  1  0  0  0  0
 21 22  2  0  0  0  0
 22 24  1  0  0  0  0
 23 22  1  0  0  0  0
 24 25  2  0  0  0  0
M  END
>  <MODEL>
3

>  <REMARK>
 VINA RESULT:      -7.6      3.163      3.827
  Name = CHEMBL1215473-5450
  4 active torsions:
  status: ('A' for Active; 'I' for Inactive)
    1  A    between atoms: N_9  and  C_10
    2  A    between atoms: C_10  and  C_11
    3  A    between atoms: C_11  and  O_12
    4  A    between atoms: O_12  and  C_13
                            x       y       z     vdW  Elec       q    Type
                         _______ _______ _______ _____ _____    ______ ____

>  <TORSDO>
F 4

>  <rfscore_v2>
6.457022201187703

>  <vina_affinity>
-6.9563689595546085

>  <vina_gauss1>
76.93808556203238

>  <vina_gauss2>
1029.6668313176551

>  <vina_repulsion>
0.8404601785365092

>  <vina_hydrophobic>
28.342465625687755

>  <vina_hydrogen>
1.1076596100952394

>  <vina_intra_gauss1>
17.904055907783402

>  <vina_intra_gauss2>
139.69766766694022

>  <vina_intra_repulsion>
0.1042591914346116

>  <vina_intra_hydrophobic>
0.0

>  <vina_intra_hydrogen>
0.0

>  <vina_num_rotors>
5.0

>  <rfscore_v3>
6.2259340687254

>  <PLEClinear_p5_l1_s65536>
5.826053363653377

>  <nnscore>
5.700865443515179

$$$$
CHEMBL1215473-5450
 OpenBabel12202021073D

 25 27  0  0  0  0  0  0  0  0999 V2000
   -6.1960   43.1980   70.9710 N   0  0  0  0  0  0  0  0  0  0  0  0
   -4.9950   43.7430   71.1330 C   0  0  0  0  0  0  0  0  0  0  0  0
   -4.2890   43.7260   72.2570 N   0  0  0  0  0  0  0  0  0  0  0  0
   -3.2100   44.4330   71.8890 N   0  0  0  0  0  0  0  0  0  0  0  0
   -3.2770   44.8200   70.5760 C   0  0  0  0  0  0  0  0  0  0  0  0
   -2.3440   45.5980   69.9780 N   0  0  0  0  0  0  0  0  0  0  0  0
   -0.9870   45.8110   70.4800 C   0  0  0  0  0  2  0  0  0  0  0  0
   -0.5840   47.3000   70.3200 C   0  0  0  0  0  2  0  0  0  0  0  0
   -0.7780   47.8620   68.9600 N   0  0  0  0  0  0  0  0  0  0  0  0
   -2.1820   47.5910   68.5530 C   0  0  0  0  0  2  0  0  0  0  0  0
   -2.6040   46.1050   68.6260 C   0  0  0  0  0  2  0  0  0  0  0  0
   -4.4100   44.3730   70.0830 N   0  0  0  0  0  0  0  0  0  0  0  0
   -6.5090   42.5370   71.6670 H   0  0  0  0  0  0  0  0  0  0  0  0
   -6.5110   43.0260   70.0260 H   0  0  0  0  0  0  0  0  0  0  0  0
   -2.5060   44.6550   72.5770 H   0  0  0  0  0  0  0  0  0  0  0  0
    0.2150   47.3090   68.0180 C   0  0  0  0  0  2  0  0  0  0  0  0
    0.6600   48.3150   66.9490 C   0  0  0  0  0  2  0  0  0  0  0  0
    1.1970   47.6170   65.8240 O   0  0  0  0  0  0  0  0  0  0  0  0
    1.5360   48.4050   64.7540 C   0  0  0  0  0  0  0  0  0  0  0  0
    2.5500   48.1350   63.8310 C   0  0  0  0  0  3  0  0  0  0  0  0
    2.7860   49.0060   62.7630 C   0  0  0  0  0  3  0  0  0  0  0  0
    2.0060   50.1520   62.6220 C   0  0  0  0  0  0  0  0  0  0  0  0
    2.3120   51.3140   61.1640 Br  0  0  0  0  0  0  0  0  0  0  0  0
    1.0040   50.4400   63.5440 C   0  0  0  0  0  3  0  0  0  0  0  0
    0.7720   49.5680   64.6100 C   0  0  0  0  0  3  0  0  0  0  0  0
  1  2  1  0  0  0  0
  1 13  1  0  0  0  0
  2  3  2  0  0  0  0
  4  3  1  0  0  0  0
  4 15  1  0  0  0  0
  5  4  1  0  0  0  0
  6  7  1  0  0  0  0
  6  5  1  0  0  0  0
  8  7  1  0  0  0  0
  9  8  1  0  0  0  0
 10 11  1  0  0  0  0
 10  9  1  0  0  0  0
 11  6  1  0  0  0  0
 12  5  2  0  0  0  0
 12  2  1  0  0  0  0
 14  1  1  0  0  0  0
 16  9  1  0  0  0  0
 17 16  1  0  0  0  0
 18 17  1  0  0  0  0
 19 18  1  0  0  0  0
 20 19  2  0  0  0  0
 21 20  1  0  0  0  0
 22 21  2  0  0  0  0
 22 24  1  0  0  0  0
 23 22  1  0  0  0  0
 24 25  2  0  0  0  0
 25 19  1  0  0  0  0
M  END
>  <MODEL>
4

>  <REMARK>
 VINA RESULT:      -7.3      1.447      1.966
  Name = CHEMBL1215473-5450
  4 active torsions:
  status: ('A' for Active; 'I' for Inactive)
    1  A    between atoms: N_9  and  C_10
    2  A    between atoms: C_10  and  C_11
    3  A    between atoms: C_11  and  O_12
    4  A    between atoms: O_12  and  C_13
                            x       y       z     vdW  Elec       q    Type
                         _______ _______ _______ _____ _____    ______ ____

>  <TORSDO>
F 4

>  <rfscore_v2>
6.534445083694083

>  <vina_affinity>
-6.930050521930054

>  <vina_gauss1>
70.05561015394207

>  <vina_gauss2>
1116.959014917242

>  <vina_repulsion>
0.6070866739649923

>  <vina_hydrophobic>
27.468495798252047

>  <vina_hydrogen>
0.4180760898692292

>  <vina_intra_gauss1>
10.864470110654299

>  <vina_intra_gauss2>
106.06492964709426

>  <vina_intra_repulsion>
0.005135314149154136

>  <vina_intra_hydrophobic>
0.0

>  <vina_intra_hydrogen>
0.0

>  <vina_num_rotors>
5.0

>  <rfscore_v3>
6.419946795887122

>  <PLEClinear_p5_l1_s65536>
4.146664442688956

>  <nnscore>
4.261676212583861

$$$$
CHEMBL1215473-5450
 OpenBabel12202021073D

 25 27  0  0  0  0  0  0  0  0999 V2000
    2.6930   48.7800   63.1850 N   0  0  0  0  0  0  0  0  0  0  0  0
    1.7100   48.7260   64.0780 C   0  0  0  0  0  0  0  0  0  0  0  0
    0.5210   49.3000   63.9480 N   0  0  0  0  0  0  0  0  0  0  0  0
   -0.0480   48.9740   65.1180 N   0  0  0  0  0  0  0  0  0  0  0  0
    0.7800   48.2040   65.8910 C   0  0  0  0  0  0  0  0  0  0  0  0
    0.4690   47.7970   67.1440 N   0  0  0  0  0  0  0  0  0  0  0  0
   -0.8830   47.7680   67.7020 C   0  0  0  0  0  2  0  0  0  0  0  0
   -0.8690   48.2700   69.1690 C   0  0  0  0  0  2  0  0  0  0  0  0
    0.1200   47.6030   70.0520 N   0  0  0  0  0  0  0  0  0  0  0  0
    1.4500   47.6930   69.3920 C   0  0  0  0  0  2  0  0  0  0  0  0
    1.4990   47.1340   67.9520 C   0  0  0  0  0  2  0  0  0  0  0  0
    1.9020   48.0310   65.2280 N   0  0  0  0  0  0  0  0  0  0  0  0
    2.4610   49.0840   62.2510 H   0  0  0  0  0  0  0  0  0  0  0  0
    3.4300   48.0920   63.2550 H   0  0  0  0  0  0  0  0  0  0  0  0
   -0.9600   49.3430   65.3440 H   0  0  0  0  0  0  0  0  0  0  0  0
   -0.2890   46.2160   70.3450 C   0  0  0  0  0  2  0  0  0  0  0  0
   -1.7810   46.0830   70.6770 C   0  0  0  0  0  2  0  0  0  0  0  0
   -2.2810   44.8480   70.1590 O   0  0  0  0  0  0  0  0  0  0  0  0
   -3.5520   44.9010   69.6480 C   0  0  0  0  0  0  0  0  0  0  0  0
   -3.9700   45.7040   68.5830 C   0  0  0  0  0  3  0  0  0  0  0  0
   -5.2930   45.6530   68.1340 C   0  0  0  0  0  3  0  0  0  0  0  0
   -6.2000   44.7970   68.7550 C   0  0  0  0  0  0  0  0  0  0  0  0
   -7.9800   44.7110   68.1300 Br  0  0  0  0  0  0  0  0  0  0  0  0
   -5.8000   44.0040   69.8270 C   0  0  0  0  0  3  0  0  0  0  0  0
   -4.4770   44.0580   70.2740 C   0  0  0  0  0  3  0  0  0  0  0  0
  1 14  1  0  0  0  0
  1  2  1  0  0  0  0
  2 12  1  0  0  0  0
  3  2  2  0  0  0  0
  3  4  1  0  0  0  0
  4 15  1  0  0  0  0
  4  5  1  0  0  0  0
  5  6  1  0  0  0  0
  6  7  1  0  0  0  0
  6 11  1  0  0  0  0
  7  8  1  0  0  0  0
  8  9  1  0  0  0  0
  9 16  1  0  0  0  0
 10  9  1  0  0  0  0
 11 10  1  0  0  0  0
 12  5  2  0  0  0  0
 13  1  1  0  0  0  0
 16 17  1  0  0  0  0
 18 17  1  0  0  0  0
 19 18  1  0  0  0  0
 19 25  1  0  0  0  0
 20 19  2  0  0  0  0
 21 20  1  0  0  0  0
 21 22  2  0  0  0  0
 22 24  1  0  0  0  0
 23 22  1  0  0  0  0
 24 25  2  0  0  0  0
M  END
>  <MODEL>
5

>  <REMARK>
 VINA RESULT:      -7.1      4.315      7.900
  Name = CHEMBL1215473-5450
  4 active torsions:
  status: ('A' for Active; 'I' for Inactive)
    1  A    between atoms: N_9  and  C_10
    2  A    between atoms: C_10  and  C_11
    3  A    between atoms: C_11  and  O_12
    4  A    between atoms: O_12  and  C_13
                            x       y       z     vdW  Elec       q    Type
                         _______ _______ _______ _____ _____    ______ ____

>  <TORSDO>
F 4

>  <rfscore_v2>
6.641087901154402

>  <vina_affinity>
-6.735554436072162

>  <vina_gauss1>
71.64866716720206

>  <vina_gauss2>
1053.2505923019403

>  <vina_repulsion>
0.7672593962609788

>  <vina_hydrophobic>
31.047767450036254

>  <vina_hydrogen>
0.46841525818707697

>  <vina_intra_gauss1>
18.256415405734387

>  <vina_intra_gauss2>
132.28802885029256

>  <vina_intra_repulsion>
0.14549966170114687

>  <vina_intra_hydrophobic>
0.0

>  <vina_intra_hydrogen>
0.0

>  <vina_num_rotors>
5.0

>  <rfscore_v3>
6.631773667459994

>  <PLEClinear_p5_l1_s65536>
3.587299795119016

>  <nnscore>
5.4584924319854515

$$$$
CHEMBL1215473-5450
 OpenBabel12202021073D

 25 27  0  0  0  0  0  0  0  0999 V2000
   -2.0250   54.0680   68.9150 N   0  0  0  0  0  0  0  0  0  0  0  0
   -2.0970   52.7780   68.6070 C   0  0  0  0  0  0  0  0  0  0  0  0
   -3.0090   51.9290   69.0620 N   0  0  0  0  0  0  0  0  0  0  0  0
   -2.6020   50.7870   68.4880 N   0  0  0  0  0  0  0  0  0  0  0  0
   -1.5010   50.9780   67.6960 C   0  0  0  0  0  0  0  0  0  0  0  0
   -0.8570   49.9740   67.0560 N   0  0  0  0  0  0  0  0  0  0  0  0
   -1.4260   48.6530   66.7880 C   0  0  0  0  0  2  0  0  0  0  0  0
   -0.3630   47.5520   67.0390 C   0  0  0  0  0  2  0  0  0  0  0  0
    0.9340   47.7590   66.3480 N   0  0  0  0  0  0  0  0  0  0  0  0
    1.4170   49.1230   66.6900 C   0  0  0  0  0  2  0  0  0  0  0  0
    0.4160   50.2620   66.3850 C   0  0  0  0  0  2  0  0  0  0  0  0
   -1.1780   52.2510   67.7580 N   0  0  0  0  0  0  0  0  0  0  0  0
   -2.8350   54.4940   69.3420 H   0  0  0  0  0  0  0  0  0  0  0  0
   -1.4800   54.6660   68.3100 H   0  0  0  0  0  0  0  0  0  0  0  0
   -3.0760   49.9240   68.7120 H   0  0  0  0  0  0  0  0  0  0  0  0
    0.7950   47.5400   64.8950 C   0  0  0  0  0  2  0  0  0  0  0  0
    2.0950   47.7840   64.1200 C   0  0  0  0  0  2  0  0  0  0  0  0
    2.0300   49.0470   63.4550 O   0  0  0  0  0  0  0  0  0  0  0  0
    2.9980   49.2590   62.5070 C   0  0  0  0  0  0  0  0  0  0  0  0
    4.1450   48.4800   62.3250 C   0  0  0  0  0  3  0  0  0  0  0  0
    5.0510   48.7820   61.3040 C   0  0  0  0  0  3  0  0  0  0  0  0
    4.8100   49.8690   60.4660 C   0  0  0  0  0  0  0  0  0  0  0  0
    6.0230   50.2580   59.0720 Br  0  0  0  0  0  0  0  0  0  0  0  0
    3.6800   50.6610   60.6470 C   0  0  0  0  0  3  0  0  0  0  0  0
    2.7770   50.3570   61.6690 C   0  0  0  0  0  3  0  0  0  0  0  0
  1 13  1  0  0  0  0
  2  1  1  0  0  0  0
  2  3  2  0  0  0  0
  4 15  1  0  0  0  0
  4  3  1  0  0  0  0
  5 12  2  0  0  0  0
  5  4  1  0  0  0  0
  6  5  1  0  0  0  0
  7  8  1  0  0  0  0
  7  6  1  0  0  0  0
  9 10  1  0  0  0  0
  9  8  1  0  0  0  0
 11 10  1  0  0  0  0
 11  6  1  0  0  0  0
 12  2  1  0  0  0  0
 14  1  1  0  0  0  0
 16  9  1  0  0  0  0
 17 16  1  0  0  0  0
 18 17  1  0  0  0  0
 19 18  1  0  0  0  0
 20 19  1  0  0  0  0
 21 20  2  0  0  0  0
 22 24  2  0  0  0  0
 22 21  1  0  0  0  0
 23 22  1  0  0  0  0
 24 25  1  0  0  0  0
 25 19  2  0  0  0  0
M  END
>  <MODEL>
6

>  <REMARK>
 VINA RESULT:      -7.1      3.737      5.274
  Name = CHEMBL1215473-5450
  4 active torsions:
  status: ('A' for Active; 'I' for Inactive)
    1  A    between atoms: N_9  and  C_10
    2  A    between atoms: C_10  and  C_11
    3  A    between atoms: C_11  and  O_12
    4  A    between atoms: O_12  and  C_13
                            x       y       z     vdW  Elec       q    Type
                         _______ _______ _______ _____ _____    ______ ____

>  <TORSDO>
F 4

>  <rfscore_v2>
6.198687634920637

>  <vina_affinity>
-6.698326254507484

>  <vina_gauss1>
78.90629602070518

>  <vina_gauss2>
1086.5209446337853

>  <vina_repulsion>
1.0386008921617162

>  <vina_hydrophobic>
28.30543623378727

>  <vina_hydrogen>
0.20609609695637854

>  <vina_intra_gauss1>
14.674518663151247

>  <vina_intra_gauss2>
120.08872149055418

>  <vina_intra_repulsion>
0.20059915786204996

>  <vina_intra_hydrophobic>
0.0

>  <vina_intra_hydrogen>
0.0

>  <vina_num_rotors>
5.0

>  <rfscore_v3>
6.103579055627386

>  <PLEClinear_p5_l1_s65536>
5.5385663632088

>  <nnscore>
5.479064407966611

$$$$
CHEMBL1215473-5450
 OpenBabel12202021073D

 25 27  0  0  0  0  0  0  0  0999 V2000
    1.6830   50.8830   61.6440 N   0  0  0  0  0  0  0  0  0  0  0  0
    0.9190   51.2470   62.6690 C   0  0  0  0  0  0  0  0  0  0  0  0
    0.3800   52.4480   62.8370 N   0  0  0  0  0  0  0  0  0  0  0  0
   -0.2370   52.2860   64.0170 N   0  0  0  0  0  0  0  0  0  0  0  0
   -0.0840   51.0140   64.5020 C   0  0  0  0  0  0  0  0  0  0  0  0
   -0.5560   50.6120   65.7060 N   0  0  0  0  0  0  0  0  0  0  0  0
   -1.5930   51.3040   66.4710 C   0  0  0  0  0  2  0  0  0  0  0  0
   -1.2240   51.3250   67.9770 C   0  0  0  0  0  2  0  0  0  0  0  0
   -0.8790   50.0050   68.5590 N   0  0  0  0  0  0  0  0  0  0  0  0
    0.1780   49.3960   67.7090 C   0  0  0  0  0  2  0  0  0  0  0  0
   -0.1800   49.2850   66.2080 C   0  0  0  0  0  2  0  0  0  0  0  0
    0.6440   50.3400   63.6410 N   0  0  0  0  0  0  0  0  0  0  0  0
    1.6800   51.4730   60.8250 H   0  0  0  0  0  0  0  0  0  0  0  0
    1.8020   49.8940   61.4750 H   0  0  0  0  0  0  0  0  0  0  0  0
   -0.6890   53.0770   64.4510 H   0  0  0  0  0  0  0  0  0  0  0  0
   -2.0810   49.1570   68.6860 C   0  0  0  0  0  2  0  0  0  0  0  0
   -1.7560   47.6860   68.9730 C   0  0  0  0  0  2  0  0  0  0  0  0
   -2.4690   46.8480   68.0600 O   0  0  0  0  0  0  0  0  0  0  0  0
   -3.3660   45.9870   68.6380 C   0  0  0  0  0  0  0  0  0  0  0  0
   -4.6950   45.8070   68.2420 C   0  0  0  0  0  3  0  0  0  0  0  0
   -5.5090   44.8770   68.8960 C   0  0  0  0  0  3  0  0  0  0  0  0
   -4.9910   44.1260   69.9490 C   0  0  0  0  0  0  0  0  0  0  0  0
   -6.0860   42.8520   70.8130 Br  0  0  0  0  0  0  0  0  0  0  0  0
   -3.6740   44.3070   70.3630 C   0  0  0  0  0  3  0  0  0  0  0  0
   -2.8640   45.2380   69.7080 C   0  0  0  0  0  3  0  0  0  0  0  0
  1  2  1  0  0  0  0
  2  3  2  0  0  0  0
  2 12  1  0  0  0  0
  3  4  1  0  0  0  0
  4 15  1  0  0  0  0
  4  5  1  0  0  0  0
  5  6  1  0  0  0  0
  6 11  1  0  0  0  0
  6  7  1  0  0  0  0
  7  8  1  0  0  0  0
  8  9  1  0  0  0  0
  9 16  1  0  0  0  0
 10  9  1  0  0  0  0
 11 10  1  0  0  0  0
 12  5  2  0  0  0  0
 13  1  1  0  0  0  0
 14  1  1  0  0  0  0
 16 17  1  0  0  0  0
 18 19  1  0  0  0  0
 18 17  1  0  0  0  0
 19 25  1  0  0  0  0
 20 19  2  0  0  0  0
 20 21  1  0  0  0  0
 21 22  2  0  0  0  0
 22 24  1  0  0  0  0
 22 23  1  0  0  0  0
 25 24  2  0  0  0  0
M  END
>  <MODEL>
7

>  <REMARK>
 VINA RESULT:      -6.9      4.712      8.462
  Name = CHEMBL1215473-5450
  4 active torsions:
  status: ('A' for Active; 'I' for Inactive)
    1  A    between atoms: N_9  and  C_10
    2  A    between atoms: C_10  and  C_11
    3  A    between atoms: C_11  and  O_12
    4  A    between atoms: O_12  and  C_13
                            x       y       z     vdW  Elec       q    Type
                         _______ _______ _______ _____ _____    ______ ____

>  <TORSDO>
F 4

>  <rfscore_v2>
6.473761929292927

>  <vina_affinity>
-6.480754971192901

>  <vina_gauss1>
68.83696097535793

>  <vina_gauss2>
983.5155345652644

>  <vina_repulsion>
0.4907533587525562

>  <vina_hydrophobic>
26.76801109528252

>  <vina_hydrogen>
0.5511336679643078

>  <vina_intra_gauss1>
16.044211534247424

>  <vina_intra_gauss2>
120.98098387891545

>  <vina_intra_repulsion>
0.11854763813488421

>  <vina_intra_hydrophobic>
0.0

>  <vina_intra_hydrogen>
0.0

>  <vina_num_rotors>
5.0

>  <rfscore_v3>
6.391346622615937

>  <PLEClinear_p5_l1_s65536>
3.0437328663906213

>  <nnscore>
5.047794953399185

$$$$
CHEMBL1215473-5450
 OpenBabel12202021073D

 25 27  0  0  0  0  0  0  0  0999 V2000
   -6.6090   42.8850   70.0550 N   0  0  0  0  0  0  0  0  0  0  0  0
   -5.5590   43.6980   70.0180 C   0  0  0  0  0  0  0  0  0  0  0  0
   -4.6180   43.7810   70.9500 N   0  0  0  0  0  0  0  0  0  0  0  0
   -3.8470   44.7560   70.4470 N   0  0  0  0  0  0  0  0  0  0  0  0
   -4.3140   45.2030   69.2390 C   0  0  0  0  0  0  0  0  0  0  0  0
   -3.7530   46.2280   68.5540 N   0  0  0  0  0  0  0  0  0  0  0  0
   -2.3990   46.7360   68.7710 C   0  0  0  0  0  2  0  0  0  0  0  0
   -2.3930   48.2850   68.7130 C   0  0  0  0  0  2  0  0  0  0  0  0
   -3.0300   48.8730   67.5080 N   0  0  0  0  0  0  0  0  0  0  0  0
   -4.3930   48.2910   67.3870 C   0  0  0  0  0  2  0  0  0  0  0  0
   -4.4390   46.7450   67.3640 C   0  0  0  0  0  2  0  0  0  0  0  0
   -5.4020   44.5240   68.9530 N   0  0  0  0  0  0  0  0  0  0  0  0
   -6.5870   42.1210   70.7150 H   0  0  0  0  0  0  0  0  0  0  0  0
   -7.0950   42.7050   69.1880 H   0  0  0  0  0  0  0  0  0  0  0  0
   -3.0660   45.0980   70.9880 H   0  0  0  0  0  0  0  0  0  0  0  0
   -2.1960   48.6500   66.3110 C   0  0  0  0  0  2  0  0  0  0  0  0
   -0.7090   48.9410   66.5480 C   0  0  0  0  0  2  0  0  0  0  0  0
   -0.2830   50.0020   65.6890 O   0  0  0  0  0  0  0  0  0  0  0  0
    0.7060   49.6710   64.8000 C   0  0  0  0  0  0  0  0  0  0  0  0
    1.5770   48.5840   64.9160 C   0  0  0  0  0  3  0  0  0  0  0  0
    2.5340   48.3340   63.9280 C   0  0  0  0  0  3  0  0  0  0  0  0
    2.6200   49.1770   62.8210 C   0  0  0  0  0  0  0  0  0  0  0  0
    3.8970   48.8210   61.4750 Br  0  0  0  0  0  0  0  0  0  0  0  0
    1.7690   50.2720   62.7020 C   0  0  0  0  0  3  0  0  0  0  0  0
    0.8150   50.5190   63.6920 C   0  0  0  0  0  3  0  0  0  0  0  0
  1 13  1  0  0  0  0
  2  1  1  0  0  0  0
  2  3  2  0  0  0  0
  4  3  1  0  0  0  0
  4 15  1  0  0  0  0
  5  4  1  0  0  0  0
  6  7  1  0  0  0  0
  6  5  1  0  0  0  0
  8  7  1  0  0  0  0
  9  8  1  0  0  0  0
 10  9  1  0  0  0  0
 11 10  1  0  0  0  0
 11  6  1  0  0  0  0
 12  5  2  0  0  0  0
 12  2  1  0  0  0  0
 14  1  1  0  0  0  0
 16 17  1  0  0  0  0
 16  9  1  0  0  0  0
 18 17  1  0  0  0  0
 19 20  1  0  0  0  0
 19 18  1  0  0  0  0
 21 20  2  0  0  0  0
 22 21  1  0  0  0  0
 23 22  1  0  0  0  0
 24 22  2  0  0  0  0
 24 25  1  0  0  0  0
 25 19  2  0  0  0  0
M  END
>  <MODEL>
8

>  <REMARK>
 VINA RESULT:      -6.9      1.678      2.344
  Name = CHEMBL1215473-5450
  4 active torsions:
  status: ('A' for Active; 'I' for Inactive)
    1  A    between atoms: N_9  and  C_10
    2  A    between atoms: C_10  and  C_11
    3  A    between atoms: C_11  and  O_12
    4  A    between atoms: O_12  and  C_13
                            x       y       z     vdW  Elec       q    Type
                         _______ _______ _______ _____ _____    ______ ____

>  <TORSDO>
F 4

>  <rfscore_v2>
6.158929092352091

>  <vina_affinity>
-6.451856351747527

>  <vina_gauss1>
63.296014587581

>  <vina_gauss2>
1016.2529587423422

>  <vina_repulsion>
0.37787472845302317

>  <vina_hydrophobic>
28.118404189432912

>  <vina_hydrogen>
0.2934918791426819

>  <vina_intra_gauss1>
12.898635540663054

>  <vina_intra_gauss2>
113.23158326896532

>  <vina_intra_repulsion>
0.1220859626685888

>  <vina_intra_hydrophobic>
0.0

>  <vina_intra_hydrogen>
0.0

>  <vina_num_rotors>
5.0

>  <rfscore_v3>
6.005333661854489

>  <PLEClinear_p5_l1_s65536>
4.31260652198516

>  <nnscore>
4.984256766911443

$$$$
CHEMBL1215473-5450
 OpenBabel12202021073D

 25 27  0  0  0  0  0  0  0  0999 V2000
    3.5440   51.6830   59.9740 N   0  0  0  0  0  0  0  0  0  0  0  0
    3.3770   50.7410   60.8960 C   0  0  0  0  0  0  0  0  0  0  0  0
    4.0770   49.6170   60.9820 N   0  0  0  0  0  0  0  0  0  0  0  0
    3.4870   49.0300   62.0340 N   0  0  0  0  0  0  0  0  0  0  0  0
    2.4920   49.8110   62.5620 C   0  0  0  0  0  0  0  0  0  0  0  0
    1.7010   49.4200   63.5880 N   0  0  0  0  0  0  0  0  0  0  0  0
    2.0120   48.3330   64.5170 C   0  0  0  0  0  2  0  0  0  0  0  0
    0.7410   47.4930   64.8050 C   0  0  0  0  0  2  0  0  0  0  0  0
   -0.4480   48.2740   65.2270 N   0  0  0  0  0  0  0  0  0  0  0  0
   -0.6710   49.3420   64.2170 C   0  0  0  0  0  2  0  0  0  0  0  0
    0.5500   50.2540   63.9550 C   0  0  0  0  0  2  0  0  0  0  0  0
    2.4240   50.9110   61.8470 N   0  0  0  0  0  0  0  0  0  0  0  0
    4.3960   51.6630   59.4330 H   0  0  0  0  0  0  0  0  0  0  0  0
    3.1640   52.6000   60.1640 H   0  0  0  0  0  0  0  0  0  0  0  0
    3.7670   48.0980   62.3020 H   0  0  0  0  0  0  0  0  0  0  0  0
   -0.2710   48.7990   66.5960 C   0  0  0  0  0  2  0  0  0  0  0  0
   -1.4730   48.5240   67.5090 C   0  0  0  0  0  2  0  0  0  0  0  0
   -2.4940   47.8510   66.7700 O   0  0  0  0  0  0  0  0  0  0  0  0
   -3.2580   46.9740   67.4960 C   0  0  0  0  0  0  0  0  0  0  0  0
   -4.5820   46.6200   67.2160 C   0  0  0  0  0  3  0  0  0  0  0  0
   -5.2520   45.6920   68.0190 C   0  0  0  0  0  3  0  0  0  0  0  0
   -4.5950   45.1180   69.1060 C   0  0  0  0  0  0  0  0  0  0  0  0
   -5.4950   43.8460   70.1730 Br  0  0  0  0  0  0  0  0  0  0  0  0
   -3.2830   45.4740   69.4040 C   0  0  0  0  0  3  0  0  0  0  0  0
   -2.6170   46.4030   68.6000 C   0  0  0  0  0  3  0  0  0  0  0  0
  1 14  1  0  0  0  0
  1  2  1  0  0  0  0
  2  3  2  0  0  0  0
  2 12  1  0  0  0  0
  3  4  1  0  0  0  0
  4 15  1  0  0  0  0
  4  5  1  0  0  0  0
  5  6  1  0  0  0  0
  6 11  1  0  0  0  0
  6  7  1  0  0  0  0
  7  8  1  0  0  0  0
  8  9  1  0  0  0  0
  9 16  1  0  0  0  0
 10  9  1  0  0  0  0
 11 10  1  0  0  0  0
 12  5  2  0  0  0  0
 13  1  1  0  0  0  0
 16 17  1  0  0  0  0
 18 19  1  0  0  0  0
 18 17  1  0  0  0  0
 19 25  1  0  0  0  0
 20 19  2  0  0  0  0
 20 21  1  0  0  0  0
 21 22  2  0  0  0  0
 22 24  1  0  0  0  0
 22 23  1  0  0  0  0
 25 24  2  0  0  0  0
M  END
>  <MODEL>
9

>  <REMARK>
 VINA RESULT:      -6.8      5.149      8.874
  Name = CHEMBL1215473-5450
  4 active torsions:
  status: ('A' for Active; 'I' for Inactive)
    1  A    between atoms: N_9  and  C_10
    2  A    between atoms: C_10  and  C_11
    3  A    between atoms: C_11  and  O_12
    4  A    between atoms: O_12  and  C_13
                            x       y       z     vdW  Elec       q    Type
                         _______ _______ _______ _____ _____    ______ ____

>  <TORSDO>
F 4

>  <rfscore_v2>
6.049644853923853

>  <vina_affinity>
-6.4760001273510825

>  <vina_gauss1>
83.23877905333396

>  <vina_gauss2>
942.6023781497231

>  <vina_repulsion>
0.4482095078139303

>  <vina_hydrophobic>
26.19935457588933

>  <vina_hydrogen>
0.0

>  <vina_intra_gauss1>
16.62472790674474

>  <vina_intra_gauss2>
107.31711406177897

>  <vina_intra_repulsion>
0.03707952560537306

>  <vina_intra_hydrophobic>
0.0

>  <vina_intra_hydrogen>
0.0

>  <vina_num_rotors>
5.0

>  <rfscore_v3>
5.694285890903215

>  <PLEClinear_p5_l1_s65536>
3.1536768183202484

>  <nnscore>
4.971016552417256

$$$$
