CHEMBL4065553-660
 OpenBabel12202021053D

 26 28  0  0  1  0  0  0  0  0999 V2000
    0.9450   48.3060   68.7630 C   0  0  2  0  0  3  0  0  0  0  0  0
    1.1180   46.7820   68.9360 C   0  0  0  0  0  2  0  0  0  0  0  0
   -0.2200   46.0530   68.9120 C   0  0  0  0  0  2  0  0  0  0  0  0
   -1.0050   46.5180   70.0410 N   0  0  2  0  0  0  0  0  0  0  0  0
   -1.6560   45.6840   70.8900 C   0  0  2  0  0  3  0  0  0  0  0  0
   -2.1400   45.9370   72.0840 N   0  0  0  0  0  0  0  0  0  0  0  0
   -2.6160   44.7350   72.5060 C   0  0  0  0  0  0  0  0  0  0  0  0
   -3.1350   44.6480   73.7280 N   0  0  0  0  0  0  0  0  0  0  0  0
   -2.5430   43.7470   71.6230 N   0  0  0  0  0  2  0  0  0  0  0  0
   -1.9220   44.3660   70.6070 N   0  0  0  0  0  0  0  0  0  0  0  0
   -1.2080   47.9620   70.1550 C   0  0  0  0  0  2  0  0  0  0  0  0
    0.1200   48.7190   70.0180 C   0  0  0  0  0  2  0  0  0  0  0  0
   -3.3740   45.5190   74.1820 H   0  0  0  0  0  0  0  0  0  0  0  0
   -3.7690   43.8800   73.9030 H   0  0  0  0  0  0  0  0  0  0  0  0
   -1.7360   43.8550   69.7560 H   0  0  0  0  0  0  0  0  0  0  0  0
   -0.2530   50.1030   67.6180 C   0  0  0  0  0  1  0  0  0  0  0  0
    0.3660   48.7610   67.4560 N   0  0  0  0  0  0  0  0  0  0  0  0
    1.3510   48.9280   66.3470 C   0  0  0  0  0  2  0  0  0  0  0  0
    1.1910   48.1020   65.0600 C   0  0  0  0  0  2  0  0  0  0  0  0
    1.9170   48.7380   63.8980 C   0  0  0  0  0  0  0  0  0  0  0  0
    1.4530   49.9550   63.3710 C   0  0  0  0  0  3  0  0  0  0  0  0
    2.1140   50.5640   62.3060 C   0  0  0  0  0  3  0  0  0  0  0  0
    3.2430   49.9590   61.7610 C   0  0  0  0  0  0  0  0  0  0  0  0
    4.0610   50.7090   60.4490 Cl  0  0  0  0  0  0  0  0  0  0  0  0
    3.7150   48.7480   62.2730 C   0  0  0  0  0  3  0  0  0  0  0  0
    3.0540   48.1360   63.3400 C   0  0  0  0  0  3  0  0  0  0  0  0
  1 17  1  6  0  0  0
  1  2  1  0  0  0  0
  1 12  1  0  0  0  0
  3  2  1  0  0  0  0
  4  3  1  6  0  0  0
  4 11  1  0  0  0  0
  4  5  1  0  0  0  0
  5  6  1  1  0  0  0
  6  7  2  0  0  0  0
  7  8  1  0  0  0  0
  8 14  1  0  0  0  0
  8 13  1  0  0  0  0
  9  7  1  0  0  0  0
 10  5  1  0  0  0  0
 10  9  1  0  0  0  0
 12 11  1  0  0  0  0
 15 10  1  0  0  0  0
 17 16  1  0  0  0  0
 18 17  1  0  0  0  0
 19 18  1  0  0  0  0
 20 19  1  0  0  0  0
 21 20  1  0  0  0  0
 22 21  2  0  0  0  0
 23 25  2  0  0  0  0
 23 22  1  0  0  0  0
 24 23  1  0  0  0  0
 25 26  1  0  0  0  0
 26 20  2  0  0  0  0
M  END
>  <MODEL>
1

>  <REMARK>
 VINA RESULT:      -8.6      0.000      0.000
  Name = CHEMBL4065553-660
  5 active torsions:
  status: ('A' for Active; 'I' for Inactive)
    1  A    between atoms: C_1  and  N_2
    2  A    between atoms: N_2  and  C_3
    3  A    between atoms: N_2  and  C_12
    4  A    between atoms: C_3  and  C_4
    5  A    between atoms: C_4  and  C_5
                            x       y       z     vdW  Elec       q    Type
                         _______ _______ _______ _____ _____    ______ ____

>  <TORSDO>
F 4

>  <rfscore_v2>
7.207430762237761

>  <vina_affinity>
-7.730712146328001

>  <vina_gauss1>
94.90800265320397

>  <vina_gauss2>
1216.6880410787185

>  <vina_repulsion>
2.8475576320368257

>  <vina_hydrophobic>
51.35395163670676

>  <vina_hydrogen>
1.5750169866630637

>  <vina_intra_gauss1>
13.702427253222563

>  <vina_intra_gauss2>
120.07605177430725

>  <vina_intra_repulsion>
0.23899800719170677

>  <vina_intra_hydrophobic>
3.752295135274018

>  <vina_intra_hydrogen>
0.0

>  <vina_num_rotors>
5.0

>  <rfscore_v3>
7.446867086191588

>  <PLEClinear_p5_l1_s65536>
2.842401447992891

>  <nnscore>
7.2839608762142145

$$$$
CHEMBL4065553-660
 OpenBabel12202021053D

 26 28  0  0  1  0  0  0  0  0999 V2000
   -0.2070   49.2700   65.0710 C   0  0  2  0  0  3  0  0  0  0  0  0
   -0.0610   47.7530   64.8340 C   0  0  0  0  0  2  0  0  0  0  0  0
    1.3920   47.3000   64.9290 C   0  0  0  0  0  2  0  0  0  0  0  0
    2.1390   47.9650   63.8760 N   0  0  2  0  0  0  0  0  0  0  0  0
    2.9960   47.3160   63.0490 C   0  0  1  0  0  3  0  0  0  0  0  0
    3.4950   47.7170   61.9020 N   0  0  0  0  0  0  0  0  0  0  0  0
    4.2280   46.6530   61.4750 C   0  0  0  0  0  0  0  0  0  0  0  0
    4.8300   46.7290   60.2910 N   0  0  0  0  0  0  0  0  0  0  0  0
    4.2970   45.6290   62.3160 N   0  0  0  0  0  2  0  0  0  0  0  0
    3.5020   46.0640   63.3050 N   0  0  0  0  0  0  0  0  0  0  0  0
    2.0560   49.4240   63.8260 C   0  0  0  0  0  2  0  0  0  0  0  0
    0.5970   49.8970   63.8940 C   0  0  0  0  0  2  0  0  0  0  0  0
    4.9180   47.6500   59.8850 H   0  0  0  0  0  0  0  0  0  0  0  0
    5.6140   46.1100   60.1360 H   0  0  0  0  0  0  0  0  0  0  0  0
    3.3680   45.4870   64.1220 H   0  0  0  0  0  0  0  0  0  0  0  0
    0.4250   51.2340   66.3820 C   0  0  0  0  0  1  0  0  0  0  0  0
    0.1850   49.7680   66.4310 N   0  0  0  0  0  0  0  0  0  0  0  0
   -0.8440   49.5850   67.4970 C   0  0  0  0  0  2  0  0  0  0  0  0
   -1.0470   48.1980   68.1260 C   0  0  0  0  0  2  0  0  0  0  0  0
    0.0760   47.8480   69.0740 C   0  0  0  0  0  0  0  0  0  0  0  0
    1.1750   47.1080   68.6080 C   0  0  0  0  0  3  0  0  0  0  0  0
    2.2270   46.7840   69.4630 C   0  0  0  0  0  3  0  0  0  0  0  0
    2.1840   47.1970   70.7910 C   0  0  0  0  0  0  0  0  0  0  0  0
    3.4800   46.8010   71.8480 Cl  0  0  0  0  0  0  0  0  0  0  0  0
    1.0970   47.9320   71.2710 C   0  0  0  0  0  3  0  0  0  0  0  0
    0.0430   48.2570   70.4150 C   0  0  0  0  0  3  0  0  0  0  0  0
  1 17  1  1  0  0  0
  2  3  1  0  0  0  0
  2  1  1  0  0  0  0
  4 11  1  1  0  0  0
  4  3  1  0  0  0  0
  5  6  1  1  0  0  0
  5 10  1  0  0  0  0
  5  4  1  0  0  0  0
  7  6  2  0  0  0  0
  7  9  1  0  0  0  0
  8  7  1  0  0  0  0
  9 10  1  0  0  0  0
 10 15  1  0  0  0  0
 11 12  1  0  0  0  0
 12  1  1  0  0  0  0
 13  8  1  0  0  0  0
 14  8  1  0  0  0  0
 16 17  1  0  0  0  0
 17 18  1  0  0  0  0
 18 19  1  0  0  0  0
 19 20  1  0  0  0  0
 20 26  1  0  0  0  0
 21 20  2  0  0  0  0
 21 22  1  0  0  0  0
 22 23  2  0  0  0  0
 23 25  1  0  0  0  0
 23 24  1  0  0  0  0
 26 25  2  0  0  0  0
M  END
>  <MODEL>
2

>  <REMARK>
 VINA RESULT:      -8.3      4.650      8.357
  Name = CHEMBL4065553-660
  5 active torsions:
  status: ('A' for Active; 'I' for Inactive)
    1  A    between atoms: C_1  and  N_2
    2  A    between atoms: N_2  and  C_3
    3  A    between atoms: N_2  and  C_12
    4  A    between atoms: C_3  and  C_4
    5  A    between atoms: C_4  and  C_5
                            x       y       z     vdW  Elec       q    Type
                         _______ _______ _______ _____ _____    ______ ____

>  <TORSDO>
F 4

>  <rfscore_v2>
7.08418548018648

>  <vina_affinity>
-7.54459022206674

>  <vina_gauss1>
99.46452748805912

>  <vina_gauss2>
1159.6589342843367

>  <vina_repulsion>
1.7349273245278964

>  <vina_hydrophobic>
43.690229032334216

>  <vina_hydrogen>
0.25624786389724036

>  <vina_intra_gauss1>
23.758397219325445

>  <vina_intra_gauss2>
161.71187732556749

>  <vina_intra_repulsion>
0.42298370000162544

>  <vina_intra_hydrophobic>
8.368873774375931

>  <vina_intra_hydrogen>
0.0

>  <vina_num_rotors>
5.0

>  <rfscore_v3>
7.096855577873108

>  <PLEClinear_p5_l1_s65536>
4.407339332051328

>  <nnscore>
7.441683673815722

$$$$
CHEMBL4065553-660
 OpenBabel12202021053D

 26 28  0  0  1  0  0  0  0  0999 V2000
   -1.7680   50.0980   68.8120 C   0  0  2  0  0  3  0  0  0  0  0  0
   -0.4500   49.6260   68.1630 C   0  0  0  0  0  2  0  0  0  0  0  0
   -0.0770   48.2130   68.5970 C   0  0  0  0  0  2  0  0  0  0  0  0
    0.1400   48.2270   70.0330 N   0  0  2  0  0  0  0  0  0  0  0  0
    1.2200   47.6610   70.6270 C   0  0  1  0  0  3  0  0  0  0  0  0
    1.6840   47.8480   71.8410 N   0  0  0  0  0  0  0  0  0  0  0  0
    2.8150   47.0930   71.8790 C   0  0  0  0  0  0  0  0  0  0  0  0
    3.5570   47.1120   72.9830 N   0  0  0  0  0  0  0  0  0  0  0  0
    3.0580   46.3680   70.7940 N   0  0  0  0  0  2  0  0  0  0  0  0
    2.0410   46.7490   70.0070 N   0  0  0  0  0  0  0  0  0  0  0  0
   -0.9460   48.7500   70.8610 C   0  0  0  0  0  2  0  0  0  0  0  0
   -1.4380   50.1040   70.3340 C   0  0  0  0  0  2  0  0  0  0  0  0
    3.1220   47.4840   73.8150 H   0  0  0  0  0  0  0  0  0  0  0  0
    4.1770   46.3270   73.1320 H   0  0  0  0  0  0  0  0  0  0  0  0
    1.9460   46.3400   69.0880 H   0  0  0  0  0  0  0  0  0  0  0  0
   -4.2130   50.1030   68.8040 C   0  0  0  0  0  1  0  0  0  0  0  0
   -3.0000   49.3240   68.4420 N   0  0  0  0  0  0  0  0  0  0  0  0
   -3.1550   49.0320   66.9870 C   0  0  0  0  0  2  0  0  0  0  0  0
   -3.0660   47.5800   66.4910 C   0  0  0  0  0  2  0  0  0  0  0  0
   -3.8030   46.6330   67.4080 C   0  0  0  0  0  0  0  0  0  0  0  0
   -3.1400   46.0820   68.5170 C   0  0  0  0  0  3  0  0  0  0  0  0
   -3.8040   45.2150   69.3830 C   0  0  0  0  0  3  0  0  0  0  0  0
   -5.1370   44.8920   69.1430 C   0  0  0  0  0  0  0  0  0  0  0  0
   -5.9590   43.8250   70.2100 Cl  0  0  0  0  0  0  0  0  0  0  0  0
   -5.8090   45.4310   68.0430 C   0  0  0  0  0  3  0  0  0  0  0  0
   -5.1450   46.2990   67.1750 C   0  0  0  0  0  3  0  0  0  0  0  0
  1 17  1  1  0  0  0
  1 12  1  0  0  0  0
  2  3  1  0  0  0  0
  2  1  1  0  0  0  0
  4  3  1  6  0  0  0
  4  5  1  0  0  0  0
  4 11  1  0  0  0  0
  5  6  1  1  0  0  0
  6  7  2  0  0  0  0
  7  8  1  0  0  0  0
  8 14  1  0  0  0  0
  8 13  1  0  0  0  0
  9  7  1  0  0  0  0
 10  5  1  0  0  0  0
 10  9  1  0  0  0  0
 12 11  1  0  0  0  0
 15 10  1  0  0  0  0
 17 16  1  0  0  0  0
 18 17  1  0  0  0  0
 19 18  1  0  0  0  0
 19 20  1  0  0  0  0
 20 21  1  0  0  0  0
 21 22  2  0  0  0  0
 23 22  1  0  0  0  0
 23 24  1  0  0  0  0
 25 23  2  0  0  0  0
 26 20  2  0  0  0  0
 26 25  1  0  0  0  0
M  END
>  <MODEL>
3

>  <REMARK>
 VINA RESULT:      -8.2      5.300      6.993
  Name = CHEMBL4065553-660
  5 active torsions:
  status: ('A' for Active; 'I' for Inactive)
    1  A    between atoms: C_1  and  N_2
    2  A    between atoms: N_2  and  C_3
    3  A    between atoms: N_2  and  C_12
    4  A    between atoms: C_3  and  C_4
    5  A    between atoms: C_4  and  C_5
                            x       y       z     vdW  Elec       q    Type
                         _______ _______ _______ _____ _____    ______ ____

>  <TORSDO>
F 4

>  <rfscore_v2>
7.128755313131308

>  <vina_affinity>
-7.040217286499708

>  <vina_gauss1>
101.93707602688315

>  <vina_gauss2>
1165.8150065992727

>  <vina_repulsion>
2.8049331897132457

>  <vina_hydrophobic>
42.62001146200961

>  <vina_hydrogen>
0.5367921281672487

>  <vina_intra_gauss1>
29.564215185016245

>  <vina_intra_gauss2>
170.17237317744588

>  <vina_intra_repulsion>
0.5605196771574592

>  <vina_intra_hydrophobic>
8.875535078962614

>  <vina_intra_hydrogen>
0.0

>  <vina_num_rotors>
5.0

>  <rfscore_v3>
7.349702120657125

>  <PLEClinear_p5_l1_s65536>
2.2963142550260813

>  <nnscore>
7.3229518351916045

$$$$
CHEMBL4065553-660
 OpenBabel12202021053D

 26 28  0  0  1  0  0  0  0  0999 V2000
   -2.3290   49.3280   67.0860 C   0  0  2  0  0  3  0  0  0  0  0  0
   -1.5660   48.8160   68.3250 C   0  0  0  0  0  2  0  0  0  0  0  0
   -1.3640   47.3060   68.2850 C   0  0  0  0  0  2  0  0  0  0  0  0
   -2.6740   46.6780   68.3070 N   0  0  2  0  0  0  0  0  0  0  0  0
   -2.9910   45.6470   69.1300 C   0  0  2  0  0  3  0  0  0  0  0  0
   -4.1770   45.1920   69.4610 N   0  0  0  0  0  0  0  0  0  0  0  0
   -3.9110   44.2070   70.3610 C   0  0  0  0  0  0  0  0  0  0  0  0
   -4.9310   43.5740   70.9320 N   0  0  0  0  0  0  0  0  0  0  0  0
   -2.6250   43.9470   70.5630 N   0  0  0  0  0  2  0  0  0  0  0  0
   -2.0560   44.8770   69.7810 N   0  0  0  0  0  0  0  0  0  0  0  0
   -3.6260   47.0980   67.2800 C   0  0  0  0  0  2  0  0  0  0  0  0
   -3.7160   48.6280   67.2030 C   0  0  0  0  0  2  0  0  0  0  0  0
   -5.8350   43.6810   70.4930 H   0  0  0  0  0  0  0  0  0  0  0  0
   -4.7440   42.6580   71.3190 H   0  0  0  0  0  0  0  0  0  0  0  0
   -1.0500   44.9170   69.7130 H   0  0  0  0  0  0  0  0  0  0  0  0
   -2.3040   49.9810   64.7300 C   0  0  0  0  0  1  0  0  0  0  0  0
   -1.6440   49.1410   65.7650 N   0  0  0  0  0  0  0  0  0  0  0  0
   -0.2090   49.5490   65.7280 C   0  0  0  0  0  2  0  0  0  0  0  0
    0.8490   48.5580   65.2180 C   0  0  0  0  0  2  0  0  0  0  0  0
    1.5980   49.1080   64.0270 C   0  0  0  0  0  0  0  0  0  0  0  0
    2.7230   48.4250   63.5370 C   0  0  0  0  0  3  0  0  0  0  0  0
    3.4220   48.9080   62.4330 C   0  0  0  0  0  3  0  0  0  0  0  0
    2.9990   50.0810   61.8130 C   0  0  0  0  0  0  0  0  0  0  0  0
    3.8580   50.6790   60.4490 Cl  0  0  0  0  0  0  0  0  0  0  0  0
    1.8830   50.7720   62.2900 C   0  0  0  0  0  3  0  0  0  0  0  0
    1.1830   50.2890   63.3960 C   0  0  0  0  0  3  0  0  0  0  0  0
  1 17  1  6  0  0  0
  1 12  1  0  0  0  0
  1  2  1  0  0  0  0
  3  2  1  0  0  0  0
  4  3  1  6  0  0  0
  4 11  1  0  0  0  0
  4  5  1  0  0  0  0
  5  6  1  1  0  0  0
  5 10  1  0  0  0  0
  6  7  2  0  0  0  0
  7  9  1  0  0  0  0
  7  8  1  0  0  0  0
  8 14  1  0  0  0  0
 10  9  1  0  0  0  0
 12 11  1  0  0  0  0
 13  8  1  0  0  0  0
 15 10  1  0  0  0  0
 16 17  1  0  0  0  0
 18 17  1  0  0  0  0
 19 18  1  0  0  0  0
 20 19  1  0  0  0  0
 21 20  1  0  0  0  0
 22 21  2  0  0  0  0
 23 25  2  0  0  0  0
 23 22  1  0  0  0  0
 24 23  1  0  0  0  0
 25 26  1  0  0  0  0
 26 20  2  0  0  0  0
M  END
>  <MODEL>
4

>  <REMARK>
 VINA RESULT:      -8.0      2.063      2.619
  Name = CHEMBL4065553-660
  5 active torsions:
  status: ('A' for Active; 'I' for Inactive)
    1  A    between atoms: C_1  and  N_2
    2  A    between atoms: N_2  and  C_3
    3  A    between atoms: N_2  and  C_12
    4  A    between atoms: C_3  and  C_4
    5  A    between atoms: C_4  and  C_5
                            x       y       z     vdW  Elec       q    Type
                         _______ _______ _______ _____ _____    ______ ____

>  <TORSDO>
F 4

>  <rfscore_v2>
6.497066413752914

>  <vina_affinity>
-7.186541566290461

>  <vina_gauss1>
68.75629776735215

>  <vina_gauss2>
1067.5924705129569

>  <vina_repulsion>
0.8090313958542638

>  <vina_hydrophobic>
39.85129428467478

>  <vina_hydrogen>
1.0441389594400734

>  <vina_intra_gauss1>
20.970321243311503

>  <vina_intra_gauss2>
130.3268782203369

>  <vina_intra_repulsion>
0.09222527071463663

>  <vina_intra_hydrophobic>
4.014885881305178

>  <vina_intra_hydrogen>
0.0

>  <vina_num_rotors>
5.0

>  <rfscore_v3>
6.594103877694209

>  <PLEClinear_p5_l1_s65536>
2.6256031903120793

>  <nnscore>
6.385173121319932

$$$$
CHEMBL4065553-660
 OpenBabel12202021053D

 26 28  0  0  1  0  0  0  0  0999 V2000
   -5.8790   47.1080   66.5350 C   0  0  2  0  0  3  0  0  0  0  0  0
   -4.4100   46.9130   66.9660 C   0  0  0  0  0  2  0  0  0  0  0  0
   -4.1400   47.5010   68.3460 C   0  0  0  0  0  2  0  0  0  0  0  0
   -4.3720   48.9330   68.2780 N   0  0  2  0  0  0  0  0  0  0  0  0
   -3.5070   49.8520   68.7750 C   0  0  1  0  0  3  0  0  0  0  0  0
   -3.4430   51.1400   68.5290 N   0  0  0  0  0  0  0  0  0  0  0  0
   -2.3530   51.5530   69.2300 C   0  0  0  0  0  0  0  0  0  0  0  0
   -1.9860   52.8280   69.1420 N   0  0  0  0  0  0  0  0  0  0  0  0
   -1.7660   50.6260   69.9760 N   0  0  0  0  0  2  0  0  0  0  0  0
   -2.5060   49.5510   69.6670 N   0  0  0  0  0  0  0  0  0  0  0  0
   -5.6770   49.3680   67.7790 C   0  0  0  0  0  2  0  0  0  0  0  0
   -6.0300   48.6570   66.4660 C   0  0  0  0  0  2  0  0  0  0  0  0
   -2.6670   53.4720   68.7650 H   0  0  0  0  0  0  0  0  0  0  0  0
   -1.4150   53.1930   69.8930 H   0  0  0  0  0  0  0  0  0  0  0  0
   -2.3020   48.6660   70.1090 H   0  0  0  0  0  0  0  0  0  0  0  0
   -8.2150   46.4000   66.6610 C   0  0  0  0  0  1  0  0  0  0  0  0
   -6.9110   46.4160   67.3750 N   0  0  0  0  0  0  0  0  0  0  0  0
   -6.6270   44.9830   67.6810 C   0  0  0  0  0  2  0  0  0  0  0  0
   -7.3340   44.3050   68.8650 C   0  0  0  0  0  2  0  0  0  0  0  0
   -6.4060   44.1390   70.0450 C   0  0  0  0  0  0  0  0  0  0  0  0
   -6.9190   43.6980   71.2770 C   0  0  0  0  0  3  0  0  0  0  0  0
   -6.0800   43.5270   72.3750 C   0  0  0  0  0  3  0  0  0  0  0  0
   -4.7200   43.7980   72.2490 C   0  0  0  0  0  0  0  0  0  0  0  0
   -3.6810   43.5860   73.6020 Cl  0  0  0  0  0  0  0  0  0  0  0  0
   -4.1950   44.2390   71.0320 C   0  0  0  0  0  3  0  0  0  0  0  0
   -5.0360   44.4110   69.9310 C   0  0  0  0  0  3  0  0  0  0  0  0
  1  2  1  0  0  0  0
  1 17  1  1  0  0  0
  2  3  1  0  0  0  0
  4 11  1  1  0  0  0
  4  3  1  0  0  0  0
  4  5  1  0  0  0  0
  5  6  1  1  0  0  0
  5 10  1  0  0  0  0
  6  7  2  0  0  0  0
  7  9  1  0  0  0  0
  8  7  1  0  0  0  0
  8 14  1  0  0  0  0
 10  9  1  0  0  0  0
 10 15  1  0  0  0  0
 12  1  1  0  0  0  0
 12 11  1  0  0  0  0
 13  8  1  0  0  0  0
 16 17  1  0  0  0  0
 17 18  1  0  0  0  0
 18 19  1  0  0  0  0
 19 20  1  0  0  0  0
 20 21  1  0  0  0  0
 21 22  2  0  0  0  0
 23 22  1  0  0  0  0
 23 24  1  0  0  0  0
 25 23  2  0  0  0  0
 26 20  2  0  0  0  0
 26 25  1  0  0  0  0
M  END
>  <MODEL>
5

>  <REMARK>
 VINA RESULT:      -8.0      6.726      9.578
  Name = CHEMBL4065553-660
  5 active torsions:
  status: ('A' for Active; 'I' for Inactive)
    1  A    between atoms: C_1  and  N_2
    2  A    between atoms: N_2  and  C_3
    3  A    between atoms: N_2  and  C_12
    4  A    between atoms: C_3  and  C_4
    5  A    between atoms: C_4  and  C_5
                            x       y       z     vdW  Elec       q    Type
                         _______ _______ _______ _____ _____    ______ ____

>  <TORSDO>
F 4

>  <rfscore_v2>
6.9346416529581525

>  <vina_affinity>
-6.873357758139795

>  <vina_gauss1>
76.99032895374458

>  <vina_gauss2>
1071.3173046033626

>  <vina_repulsion>
0.780643412605968

>  <vina_hydrophobic>
30.545171833788515

>  <vina_hydrogen>
0.33827399508017386

>  <vina_intra_gauss1>
20.98500267074083

>  <vina_intra_gauss2>
179.50609788790848

>  <vina_intra_repulsion>
0.1702917725412656

>  <vina_intra_hydrophobic>
7.844671822056624

>  <vina_intra_hydrogen>
0.0

>  <vina_num_rotors>
5.0

>  <rfscore_v3>
6.866671028598857

>  <PLEClinear_p5_l1_s65536>
2.1747609918192836

>  <nnscore>
7.15398944348116

$$$$
CHEMBL4065553-660
 OpenBabel12202021053D

 26 28  0  0  1  0  0  0  0  0999 V2000
   -2.4330   47.3410   68.3590 C   0  0  2  0  0  3  0  0  0  0  0  0
   -2.0570   48.2690   69.5330 C   0  0  0  0  0  2  0  0  0  0  0  0
   -2.6610   49.6600   69.3740 C   0  0  0  0  0  2  0  0  0  0  0  0
   -2.1050   50.2560   68.1720 N   0  0  2  0  0  0  0  0  0  0  0  0
   -1.6070   51.5170   68.1280 C   0  0  1  0  0  3  0  0  0  0  0  0
   -0.8290   52.0640   67.2220 N   0  0  0  0  0  0  0  0  0  0  0  0
   -0.5830   53.3090   67.7120 C   0  0  0  0  0  0  0  0  0  0  0  0
    0.2340   54.1090   67.0330 N   0  0  0  0  0  0  0  0  0  0  0  0
   -1.2220   53.6220   68.8320 N   0  0  0  0  0  2  0  0  0  0  0  0
   -1.8600   52.4690   69.0860 N   0  0  0  0  0  0  0  0  0  0  0  0
   -2.2400   49.4910   66.9320 C   0  0  0  0  0  2  0  0  0  0  0  0
   -1.7830   48.0390   67.1270 C   0  0  0  0  0  2  0  0  0  0  0  0
    0.4320   53.8510   66.0760 H   0  0  0  0  0  0  0  0  0  0  0  0
    0.1490   55.1020   67.2050 H   0  0  0  0  0  0  0  0  0  0  0  0
   -2.4610   52.4040   69.8940 H   0  0  0  0  0  0  0  0  0  0  0  0
   -4.2430   46.9600   66.7610 C   0  0  0  0  0  1  0  0  0  0  0  0
   -3.8920   47.0310   68.2040 N   0  0  0  0  0  0  0  0  0  0  0  0
   -4.3270   45.7180   68.7660 C   0  0  0  0  0  2  0  0  0  0  0  0
   -3.3300   44.8690   69.5700 C   0  0  0  0  0  2  0  0  0  0  0  0
   -3.9450   44.3540   70.8500 C   0  0  0  0  0  0  0  0  0  0  0  0
   -3.2320   44.4610   72.0560 C   0  0  0  0  0  3  0  0  0  0  0  0
   -3.7840   44.0020   73.2500 C   0  0  0  0  0  3  0  0  0  0  0  0
   -5.0540   43.4310   73.2450 C   0  0  0  0  0  0  0  0  0  0  0  0
   -5.7390   42.8660   74.7170 Cl  0  0  0  0  0  0  0  0  0  0  0  0
   -5.7740   43.3160   72.0530 C   0  0  0  0  0  3  0  0  0  0  0  0
   -5.2220   43.7750   70.8570 C   0  0  0  0  0  3  0  0  0  0  0  0
  1 17  1  6  0  0  0
  1  2  1  0  0  0  0
  3  2  1  0  0  0  0
  4 11  1  6  0  0  0
  4  3  1  0  0  0  0
  5  6  1  6  0  0  0
  5  4  1  0  0  0  0
  5 10  1  0  0  0  0
  6  7  2  0  0  0  0
  7  9  1  0  0  0  0
  8 14  1  0  0  0  0
  8  7  1  0  0  0  0
  9 10  1  0  0  0  0
 10 15  1  0  0  0  0
 11 12  1  0  0  0  0
 12  1  1  0  0  0  0
 13  8  1  0  0  0  0
 16 17  1  0  0  0  0
 17 18  1  0  0  0  0
 18 19  1  0  0  0  0
 19 20  1  0  0  0  0
 20 26  2  0  0  0  0
 20 21  1  0  0  0  0
 21 22  2  0  0  0  0
 23 22  1  0  0  0  0
 23 24  1  0  0  0  0
 25 23  2  0  0  0  0
 26 25  1  0  0  0  0
M  END
>  <MODEL>
6

>  <REMARK>
 VINA RESULT:      -7.8      5.863      9.677
  Name = CHEMBL4065553-660
  5 active torsions:
  status: ('A' for Active; 'I' for Inactive)
    1  A    between atoms: C_1  and  N_2
    2  A    between atoms: N_2  and  C_3
    3  A    between atoms: N_2  and  C_12
    4  A    between atoms: C_3  and  C_4
    5  A    between atoms: C_4  and  C_5
                            x       y       z     vdW  Elec       q    Type
                         _______ _______ _______ _____ _____    ______ ____

>  <TORSDO>
F 4

>  <rfscore_v2>
7.366381844877343

>  <vina_affinity>
-7.083676047202769

>  <vina_gauss1>
79.01171663193529

>  <vina_gauss2>
1229.843234518581

>  <vina_repulsion>
1.6023634726152913

>  <vina_hydrophobic>
25.61179323658843

>  <vina_hydrogen>
0.7561404824350879

>  <vina_intra_gauss1>
15.89008833669363

>  <vina_intra_gauss2>
130.4596268616472

>  <vina_intra_repulsion>
0.7020889519067262

>  <vina_intra_hydrophobic>
8.053175418033625

>  <vina_intra_hydrogen>
0.0

>  <vina_num_rotors>
5.0

>  <rfscore_v3>
7.224505882855712

>  <PLEClinear_p5_l1_s65536>
2.7433070977243403

>  <nnscore>
7.008578280781405

$$$$
CHEMBL4065553-660
 OpenBabel12202021053D

 26 28  0  0  1  0  0  0  0  0999 V2000
   -3.4130   47.9640   67.7270 C   0  0  2  0  0  3  0  0  0  0  0  0
   -2.9190   47.2640   69.0110 C   0  0  0  0  0  2  0  0  0  0  0  0
   -3.0980   45.7520   68.9390 C   0  0  0  0  0  2  0  0  0  0  0  0
   -4.5190   45.4730   68.8270 N   0  0  2  0  0  0  0  0  0  0  0  0
   -5.1580   44.5470   69.5850 C   0  0  1  0  0  3  0  0  0  0  0  0
   -6.4460   44.4020   69.7960 N   0  0  0  0  0  0  0  0  0  0  0  0
   -6.5180   43.3730   70.6830 C   0  0  0  0  0  0  0  0  0  0  0  0
   -7.7120   43.0110   71.1430 N   0  0  0  0  0  0  0  0  0  0  0  0
   -5.3620   42.7960   70.9880 N   0  0  0  0  0  2  0  0  0  0  0  0
   -4.5090   43.5600   70.2890 N   0  0  0  0  0  0  0  0  0  0  0  0
   -5.2380   46.1300   67.7350 C   0  0  0  0  0  2  0  0  0  0  0  0
   -4.9350   47.6340   67.7010 C   0  0  0  0  0  2  0  0  0  0  0  0
   -8.5160   43.3470   70.6310 H   0  0  0  0  0  0  0  0  0  0  0  0
   -7.7950   42.0740   71.5140 H   0  0  0  0  0  0  0  0  0  0  0  0
   -3.5230   43.3470   70.3090 H   0  0  0  0  0  0  0  0  0  0  0  0
   -3.3920   48.1970   65.2940 C   0  0  0  0  0  1  0  0  0  0  0  0
   -2.6780   47.6230   66.4650 N   0  0  0  0  0  0  0  0  0  0  0  0
   -1.2920   48.1680   66.3690 C   0  0  0  0  0  2  0  0  0  0  0  0
   -0.7980   49.1750   67.4190 C   0  0  0  0  0  2  0  0  0  0  0  0
    0.1780   48.5410   68.3820 C   0  0  0  0  0  0  0  0  0  0  0  0
    0.0170   48.7340   69.7640 C   0  0  0  0  0  3  0  0  0  0  0  0
    0.8980   48.1500   70.6700 C   0  0  0  0  0  3  0  0  0  0  0  0
    1.9500   47.3690   70.1990 C   0  0  0  0  0  0  0  0  0  0  0  0
    3.0390   46.6450   71.3140 Cl  0  0  0  0  0  0  0  0  0  0  0  0
    2.1260   47.1700   68.8270 C   0  0  0  0  0  3  0  0  0  0  0  0
    1.2430   47.7560   67.9180 C   0  0  0  0  0  3  0  0  0  0  0  0
  1 17  1  6  0  0  0
  1  2  1  0  0  0  0
  3  2  1  0  0  0  0
  4 11  1  6  0  0  0
  4  3  1  0  0  0  0
  4  5  1  0  0  0  0
  5  6  1  6  0  0  0
  5 10  1  0  0  0  0
  6  7  2  0  0  0  0
  7  9  1  0  0  0  0
  7  8  1  0  0  0  0
  8 14  1  0  0  0  0
 10 15  1  0  0  0  0
 10  9  1  0  0  0  0
 12  1  1  0  0  0  0
 12 11  1  0  0  0  0
 13  8  1  0  0  0  0
 16 17  1  0  0  0  0
 18 17  1  0  0  0  0
 18 19  1  0  0  0  0
 19 20  1  0  0  0  0
 20 21  1  0  0  0  0
 21 22  2  0  0  0  0
 23 22  1  0  0  0  0
 23 24  1  0  0  0  0
 25 23  2  0  0  0  0
 26 20  2  0  0  0  0
 26 25  1  0  0  0  0
M  END
>  <MODEL>
7

>  <REMARK>
 VINA RESULT:      -7.7      4.305      5.546
  Name = CHEMBL4065553-660
  5 active torsions:
  status: ('A' for Active; 'I' for Inactive)
    1  A    between atoms: C_1  and  N_2
    2  A    between atoms: N_2  and  C_3
    3  A    between atoms: N_2  and  C_12
    4  A    between atoms: C_3  and  C_4
    5  A    between atoms: C_4  and  C_5
                            x       y       z     vdW  Elec       q    Type
                         _______ _______ _______ _____ _____    ______ ____

>  <TORSDO>
F 4

>  <rfscore_v2>
7.040152804473306

>  <vina_affinity>
-7.062008417890182

>  <vina_gauss1>
78.50204016967047

>  <vina_gauss2>
1122.6549628433481

>  <vina_repulsion>
1.3136209286820306

>  <vina_hydrophobic>
39.60067388613213

>  <vina_hydrogen>
0.4319106788769738

>  <vina_intra_gauss1>
23.188969210092782

>  <vina_intra_gauss2>
157.59517123291215

>  <vina_intra_repulsion>
1.2876772970300372

>  <vina_intra_hydrophobic>
13.68914998890453

>  <vina_intra_hydrogen>
0.0

>  <vina_num_rotors>
5.0

>  <rfscore_v3>
6.870607734226561

>  <PLEClinear_p5_l1_s65536>
2.6015217851368933

>  <nnscore>
7.016957252785668

$$$$
CHEMBL4065553-660
 OpenBabel12202021053D

 26 28  0  0  1  0  0  0  0  0999 V2000
   -1.3530   48.5680   65.6370 C   0  0  2  0  0  3  0  0  0  0  0  0
   -1.9390   48.1610   67.0050 C   0  0  0  0  0  2  0  0  0  0  0  0
   -1.2460   48.8800   68.1570 C   0  0  0  0  0  2  0  0  0  0  0  0
    0.1500   48.4810   68.1610 N   0  0  2  0  0  0  0  0  0  0  0  0
    0.8080   48.0860   69.2790 C   0  0  1  0  0  3  0  0  0  0  0  0
    1.9440   47.4360   69.3800 N   0  0  0  0  0  0  0  0  0  0  0  0
    2.0930   47.2420   70.7180 C   0  0  0  0  0  0  0  0  0  0  0  0
    3.1460   46.5520   71.1480 N   0  0  0  0  0  0  0  0  0  0  0  0
    1.1660   47.8010   71.4850 N   0  0  0  0  0  2  0  0  0  0  0  0
    0.3540   48.3240   70.5540 N   0  0  0  0  0  0  0  0  0  0  0  0
    0.8940   48.6660   66.9150 C   0  0  0  0  0  2  0  0  0  0  0  0
    0.1250   48.0850   65.7210 C   0  0  0  0  0  2  0  0  0  0  0  0
    3.9020   46.4210   70.4910 H   0  0  0  0  0  0  0  0  0  0  0  0
    3.4270   46.6960   72.1090 H   0  0  0  0  0  0  0  0  0  0  0  0
   -0.4610   48.8440   70.8450 H   0  0  0  0  0  0  0  0  0  0  0  0
   -0.4380   50.4060   64.3110 C   0  0  0  0  0  1  0  0  0  0  0  0
   -1.5190   50.0080   65.2500 N   0  0  0  0  0  0  0  0  0  0  0  0
   -2.7870   50.3310   64.5300 C   0  0  0  0  0  2  0  0  0  0  0  0
   -3.8920   51.1160   65.2540 C   0  0  0  0  0  2  0  0  0  0  0  0
   -4.6930   50.2270   66.1750 C   0  0  0  0  0  0  0  0  0  0  0  0
   -5.5280   49.2350   65.6320 C   0  0  0  0  0  3  0  0  0  0  0  0
   -6.2670   48.3960   66.4630 C   0  0  0  0  0  3  0  0  0  0  0  0
   -6.1790   48.5470   67.8440 C   0  0  0  0  0  0  0  0  0  0  0  0
   -7.0880   47.5130   68.8720 Cl  0  0  0  0  0  0  0  0  0  0  0  0
   -5.3560   49.5290   68.3990 C   0  0  0  0  0  3  0  0  0  0  0  0
   -4.6140   50.3700   67.5670 C   0  0  0  0  0  3  0  0  0  0  0  0
  1 17  1  1  0  0  0
  1 12  1  0  0  0  0
  1  2  1  0  0  0  0
  2  3  1  0  0  0  0
  4  3  1  1  0  0  0
  4 11  1  0  0  0  0
  4  5  1  0  0  0  0
  5  6  1  1  0  0  0
  5 10  1  0  0  0  0
  6  7  2  0  0  0  0
  7  8  1  0  0  0  0
  7  9  1  0  0  0  0
  8 14  1  0  0  0  0
 10 15  1  0  0  0  0
 10  9  1  0  0  0  0
 12 11  1  0  0  0  0
 13  8  1  0  0  0  0
 16 17  1  0  0  0  0
 18 17  1  0  0  0  0
 18 19  1  0  0  0  0
 19 20  1  0  0  0  0
 20 26  1  0  0  0  0
 21 20  2  0  0  0  0
 21 22  1  0  0  0  0
 22 23  2  0  0  0  0
 23 25  1  0  0  0  0
 23 24  1  0  0  0  0
 26 25  2  0  0  0  0
M  END
>  <MODEL>
8

>  <REMARK>
 VINA RESULT:      -7.6      4.599      6.812
  Name = CHEMBL4065553-660
  5 active torsions:
  status: ('A' for Active; 'I' for Inactive)
    1  A    between atoms: C_1  and  N_2
    2  A    between atoms: N_2  and  C_3
    3  A    between atoms: N_2  and  C_12
    4  A    between atoms: C_3  and  C_4
    5  A    between atoms: C_4  and  C_5
                            x       y       z     vdW  Elec       q    Type
                         _______ _______ _______ _____ _____    ______ ____

>  <TORSDO>
F 4

>  <rfscore_v2>
6.988283896103896

>  <vina_affinity>
-6.674772325530284

>  <vina_gauss1>
65.98810503109746

>  <vina_gauss2>
1118.9703051332342

>  <vina_repulsion>
0.6597452779231916

>  <vina_hydrophobic>
19.280581869344175

>  <vina_hydrogen>
0.6499446797186266

>  <vina_intra_gauss1>
32.25213919223651

>  <vina_intra_gauss2>
163.11610010257405

>  <vina_intra_repulsion>
0.6234211876527118

>  <vina_intra_hydrophobic>
13.743765293439441

>  <vina_intra_hydrogen>
0.0

>  <vina_num_rotors>
5.0

>  <rfscore_v3>
6.9252222690250935

>  <PLEClinear_p5_l1_s65536>
3.503682365574648

>  <nnscore>
7.427717914146989

$$$$
CHEMBL4065553-660
 OpenBabel12202021053D

 26 28  0  0  1  0  0  0  0  0999 V2000
   -2.0850   49.4620   65.3020 C   0  0  2  0  0  3  0  0  0  0  0  0
   -1.4740   48.1870   64.6850 C   0  0  0  0  0  2  0  0  0  0  0  0
    0.0210   48.0820   64.9630 C   0  0  0  0  0  2  0  0  0  0  0  0
    0.6760   49.2130   64.3300 N   0  0  2  0  0  0  0  0  0  0  0  0
    1.7870   49.0940   63.5600 C   0  0  1  0  0  3  0  0  0  0  0  0
    2.2970   49.9560   62.7110 N   0  0  0  0  0  0  0  0  0  0  0  0
    3.3570   49.2960   62.1720 C   0  0  0  0  0  0  0  0  0  0  0  0
    4.0630   49.8980   61.2190 N   0  0  0  0  0  0  0  0  0  0  0  0
    3.6080   48.0970   62.6840 N   0  0  0  0  0  2  0  0  0  0  0  0
    2.5960   47.9820   63.5570 N   0  0  0  0  0  0  0  0  0  0  0  0
    0.1800   50.5440   64.6770 C   0  0  0  0  0  2  0  0  0  0  0  0
   -1.3480   50.6130   64.5550 C   0  0  0  0  0  2  0  0  0  0  0  0
    3.9340   50.8940   61.1190 H   0  0  0  0  0  0  0  0  0  0  0  0
    5.0070   49.5660   61.0700 H   0  0  0  0  0  0  0  0  0  0  0  0
    2.5280   47.1530   64.1280 H   0  0  0  0  0  0  0  0  0  0  0  0
   -2.6880   50.8210   67.2430 C   0  0  0  0  0  1  0  0  0  0  0  0
   -2.0400   49.5590   66.7980 N   0  0  0  0  0  0  0  0  0  0  0  0
   -2.7680   48.4790   67.5290 C   0  0  0  0  0  2  0  0  0  0  0  0
   -1.9790   47.3040   68.1270 C   0  0  0  0  0  2  0  0  0  0  0  0
   -2.8980   46.2730   68.7390 C   0  0  0  0  0  0  0  0  0  0  0  0
   -4.2300   46.1800   68.3010 C   0  0  0  0  0  3  0  0  0  0  0  0
   -5.0910   45.2290   68.8430 C   0  0  0  0  0  3  0  0  0  0  0  0
   -4.6260   44.3660   69.8310 C   0  0  0  0  0  0  0  0  0  0  0  0
   -5.6860   43.1900   70.5010 Cl  0  0  0  0  0  0  0  0  0  0  0  0
   -3.3060   44.4470   70.2790 C   0  0  0  0  0  3  0  0  0  0  0  0
   -2.4420   45.3990   69.7360 C   0  0  0  0  0  3  0  0  0  0  0  0
  1 17  1  1  0  0  0
  2  3  1  0  0  0  0
  2  1  1  0  0  0  0
  4 11  1  1  0  0  0
  4  3  1  0  0  0  0
  5  6  1  1  0  0  0
  5  4  1  0  0  0  0
  7  9  1  0  0  0  0
  7  6  2  0  0  0  0
  8  7  1  0  0  0  0
  9 10  1  0  0  0  0
 10  5  1  0  0  0  0
 10 15  1  0  0  0  0
 12 11  1  0  0  0  0
 12  1  1  0  0  0  0
 13  8  1  0  0  0  0
 14  8  1  0  0  0  0
 17 16  1  0  0  0  0
 17 18  1  0  0  0  0
 18 19  1  0  0  0  0
 19 20  1  0  0  0  0
 20 26  1  0  0  0  0
 21 20  2  0  0  0  0
 21 22  1  0  0  0  0
 22 23  2  0  0  0  0
 23 25  1  0  0  0  0
 23 24  1  0  0  0  0
 26 25  2  0  0  0  0
M  END
>  <MODEL>
9

>  <REMARK>
 VINA RESULT:      -7.6      4.944      9.151
  Name = CHEMBL4065553-660
  5 active torsions:
  status: ('A' for Active; 'I' for Inactive)
    1  A    between atoms: C_1  and  N_2
    2  A    between atoms: N_2  and  C_3
    3  A    between atoms: N_2  and  C_12
    4  A    between atoms: C_3  and  C_4
    5  A    between atoms: C_4  and  C_5
                            x       y       z     vdW  Elec       q    Type
                         _______ _______ _______ _____ _____    ______ ____

>  <TORSDO>
F 4

>  <rfscore_v2>
6.407099779553775

>  <vina_affinity>
-7.069865649803152

>  <vina_gauss1>
74.60821292274343

>  <vina_gauss2>
1050.616462941815

>  <vina_repulsion>
0.2263111047165543

>  <vina_hydrophobic>
35.63160545592728

>  <vina_hydrogen>
0.0

>  <vina_intra_gauss1>
17.116138156518964

>  <vina_intra_gauss2>
131.34061044985998

>  <vina_intra_repulsion>
0.08890500787586761

>  <vina_intra_hydrophobic>
6.00356040920432

>  <vina_intra_hydrogen>
0.0

>  <vina_num_rotors>
5.0

>  <rfscore_v3>
6.37312134433867

>  <PLEClinear_p5_l1_s65536>
2.3614389735297636

>  <nnscore>
6.505445694538352

$$$$
