CHEMBL4086986-348
 OpenBabel12202021073D

 26 28  0  0  1  0  0  0  0  0999 V2000
   -0.5170   49.9450   67.8030 C   0  0  2  0  0  3  0  0  0  0  0  0
    0.1690   48.8170   68.6020 C   0  0  0  0  0  2  0  0  0  0  0  0
   -0.3590   47.4470   68.1980 C   0  0  0  0  0  2  0  0  0  0  0  0
   -1.7800   47.3900   68.4900 N   0  0  2  0  0  0  0  0  0  0  0  0
   -2.2310   46.3250   69.1860 C   0  0  1  0  0  3  0  0  0  0  0  0
   -1.5250   45.4680   69.8900 N   0  0  0  0  0  0  0  0  0  0  0  0
   -2.4500   44.6280   70.4060 C   0  0  0  0  0  0  0  0  0  0  0  0
   -2.0280   43.6600   71.2200 N   0  0  0  0  0  0  0  0  0  0  0  0
   -3.7110   44.8980   70.0880 N   0  0  0  0  0  2  0  0  0  0  0  0
   -3.5510   45.9620   69.2830 N   0  0  0  0  0  0  0  0  0  0  0  0
   -2.5780   48.3820   67.7860 C   0  0  0  0  0  2  0  0  0  0  0  0
   -2.0350   49.7770   68.1430 C   0  0  0  0  0  2  0  0  0  0  0  0
   -1.1010   43.7890   71.6060 H   0  0  0  0  0  0  0  0  0  0  0  0
   -2.7080   43.2940   71.8690 H   0  0  0  0  0  0  0  0  0  0  0  0
   -4.3520   46.3820   68.8470 H   0  0  0  0  0  0  0  0  0  0  0  0
   -0.2550   51.3720   65.8300 C   0  0  0  0  0  1  0  0  0  0  0  0
   -0.2350   49.9800   66.3350 N   0  0  0  0  0  0  0  0  0  0  0  0
    1.0800   49.4130   65.9070 C   0  0  0  0  0  2  0  0  0  0  0  0
    1.2200   48.5280   64.6420 C   0  0  0  0  0  2  0  0  0  0  0  0
    2.0990   49.0570   63.5320 C   0  0  0  0  0  0  0  0  0  0  0  0
    1.7540   50.2200   62.8290 C   0  0  0  0  0  3  0  0  0  0  0  0
    2.5300   50.6640   61.7580 C   0  0  0  0  0  3  0  0  0  0  0  0
    3.6640   49.9500   61.3820 C   0  0  0  0  0  0  0  0  0  0  0  0
    4.6980   50.5450   59.9160 Br  0  0  0  0  0  0  0  0  0  0  0  0
    4.0350   48.8000   62.0740 C   0  0  0  0  0  3  0  0  0  0  0  0
    3.2690   48.3690   63.1620 C   0  0  0  0  0  3  0  0  0  0  0  0
  1 17  1  6  0  0  0
  1 12  1  0  0  0  0
  1  2  1  0  0  0  0
  3  2  1  0  0  0  0
  4  3  1  6  0  0  0
  4 11  1  0  0  0  0
  4  5  1  0  0  0  0
  5 10  1  0  0  0  0
  5  6  1  1  0  0  0
  6  7  2  0  0  0  0
  7  8  1  0  0  0  0
  8 13  1  0  0  0  0
  8 14  1  0  0  0  0
  9  7  1  0  0  0  0
 10  9  1  0  0  0  0
 11 12  1  0  0  0  0
 15 10  1  0  0  0  0
 16 17  1  0  0  0  0
 18 17  1  0  0  0  0
 19 18  1  0  0  0  0
 20 19  1  0  0  0  0
 21 20  2  0  0  0  0
 22 21  1  0  0  0  0
 23 22  2  0  0  0  0
 23 25  1  0  0  0  0
 24 23  1  0  0  0  0
 25 26  2  0  0  0  0
 26 20  1  0  0  0  0
M  END
>  <MODEL>
1

>  <REMARK>
 VINA RESULT:      -8.5      0.000      0.000
  Name = CHEMBL4086986-348
  5 active torsions:
  status: ('A' for Active; 'I' for Inactive)
    1  A    between atoms: C_1  and  N_2
    2  A    between atoms: N_2  and  C_3
    3  A    between atoms: N_2  and  C_12
    4  A    between atoms: C_3  and  C_4
    5  A    between atoms: C_4  and  C_5
                            x       y       z     vdW  Elec       q    Type
                         _______ _______ _______ _____ _____    ______ ____

>  <TORSDO>
F 4

>  <rfscore_v2>
6.7993531085581065

>  <vina_affinity>
-7.84314296567396

>  <vina_gauss1>
72.14589997688472

>  <vina_gauss2>
1171.389070251267

>  <vina_repulsion>
1.1662999454991145

>  <vina_hydrophobic>
46.788544259880226

>  <vina_hydrogen>
1.4683384874913479

>  <vina_intra_gauss1>
19.0621181626828

>  <vina_intra_gauss2>
129.48062652224993

>  <vina_intra_repulsion>
0.41544006178268983

>  <vina_intra_hydrophobic>
4.128000354308238

>  <vina_intra_hydrogen>
0.0

>  <vina_num_rotors>
5.0

>  <rfscore_v3>
6.80274116655567

>  <PLEClinear_p5_l1_s65536>
2.0208506758926044

>  <nnscore>
6.8315271426030035

$$$$
CHEMBL4086986-348
 OpenBabel12202021073D

 26 28  0  0  1  0  0  0  0  0999 V2000
   -0.3660   48.5900   67.6400 C   0  0  2  0  0  3  0  0  0  0  0  0
    0.1900   47.7830   68.8330 C   0  0  0  0  0  2  0  0  0  0  0  0
   -0.3250   46.3500   68.8240 C   0  0  0  0  0  2  0  0  0  0  0  0
   -1.7710   46.3740   68.9470 N   0  0  2  0  0  0  0  0  0  0  0  0
   -2.3300   45.5810   69.8860 C   0  0  1  0  0  3  0  0  0  0  0  0
   -1.7350   45.0010   70.9050 N   0  0  0  0  0  0  0  0  0  0  0  0
   -2.7370   44.3590   71.5470 C   0  0  0  0  0  0  0  0  0  0  0  0
   -2.4410   43.7060   72.6710 N   0  0  0  0  0  0  0  0  0  0  0  0
   -3.9440   44.5000   71.0100 N   0  0  0  0  0  2  0  0  0  0  0  0
   -3.6610   45.2530   69.9350 N   0  0  0  0  0  0  0  0  0  0  0  0
   -2.4530   47.0800   67.8740 C   0  0  0  0  0  2  0  0  0  0  0  0
   -1.9170   48.5230   67.8320 C   0  0  0  0  0  2  0  0  0  0  0  0
   -1.5620   43.9620   73.1040 H   0  0  0  0  0  0  0  0  0  0  0  0
   -3.2020   43.5590   73.3160 H   0  0  0  0  0  0  0  0  0  0  0  0
   -4.3940   45.5040   69.2950 H   0  0  0  0  0  0  0  0  0  0  0  0
   -0.8670   48.6080   65.2440 C   0  0  0  0  0  1  0  0  0  0  0  0
    0.0870   48.1580   66.2820 N   0  0  0  0  0  0  0  0  0  0  0  0
    1.4260   48.6620   65.8470 C   0  0  0  0  0  2  0  0  0  0  0  0
    1.7000   49.1100   64.3900 C   0  0  0  0  0  2  0  0  0  0  0  0
    2.6460   48.2540   63.5770 C   0  0  0  0  0  0  0  0  0  0  0  0
    2.7450   46.8750   63.8020 C   0  0  0  0  0  3  0  0  0  0  0  0
    3.6710   46.1010   63.1010 C   0  0  0  0  0  3  0  0  0  0  0  0
    4.5040   46.7020   62.1610 C   0  0  0  0  0  0  0  0  0  0  0  0
    5.7690   45.6510   61.2300 Br  0  0  0  0  0  0  0  0  0  0  0  0
    4.4130   48.0680   61.9100 C   0  0  0  0  0  3  0  0  0  0  0  0
    3.4690   48.8380   62.5980 C   0  0  0  0  0  3  0  0  0  0  0  0
  1 17  1  6  0  0  0
  1 12  1  0  0  0  0
  1  2  1  0  0  0  0
  3  2  1  0  0  0  0
  4  3  1  6  0  0  0
  4 11  1  0  0  0  0
  4  5  1  0  0  0  0
  5 10  1  0  0  0  0
  5  6  1  1  0  0  0
  6  7  2  0  0  0  0
  7  8  1  0  0  0  0
  8 13  1  0  0  0  0
  8 14  1  0  0  0  0
  9  7  1  0  0  0  0
 10  9  1  0  0  0  0
 12 11  1  0  0  0  0
 15 10  1  0  0  0  0
 16 17  1  0  0  0  0
 18 17  1  0  0  0  0
 19 18  1  0  0  0  0
 20 21  1  0  0  0  0
 20 19  1  0  0  0  0
 22 21  2  0  0  0  0
 23 22  1  0  0  0  0
 24 23  1  0  0  0  0
 25 23  2  0  0  0  0
 25 26  1  0  0  0  0
 26 20  2  0  0  0  0
M  END
>  <MODEL>
2

>  <REMARK>
 VINA RESULT:      -8.5      1.709      2.171
  Name = CHEMBL4086986-348
  5 active torsions:
  status: ('A' for Active; 'I' for Inactive)
    1  A    between atoms: C_1  and  N_2
    2  A    between atoms: N_2  and  C_3
    3  A    between atoms: N_2  and  C_12
    4  A    between atoms: C_3  and  C_4
    5  A    between atoms: C_4  and  C_5
                            x       y       z     vdW  Elec       q    Type
                         _______ _______ _______ _____ _____    ______ ____

>  <TORSDO>
F 4

>  <rfscore_v2>
6.951229462870456

>  <vina_affinity>
-7.845247809580267

>  <vina_gauss1>
82.57688212037925

>  <vina_gauss2>
1203.3590899413466

>  <vina_repulsion>
1.2264613768393275

>  <vina_hydrophobic>
47.24683477564602

>  <vina_hydrogen>
0.618017959488087

>  <vina_intra_gauss1>
16.49644660409649

>  <vina_intra_gauss2>
120.95233879178647

>  <vina_intra_repulsion>
0.2733329687984154

>  <vina_intra_hydrophobic>
2.803262356551274

>  <vina_intra_hydrogen>
0.0

>  <vina_num_rotors>
5.0

>  <rfscore_v3>
6.8574091773781785

>  <PLEClinear_p5_l1_s65536>
3.1650806873162276

>  <nnscore>
7.112810867128944

$$$$
CHEMBL4086986-348
 OpenBabel12202021073D

 26 28  0  0  1  0  0  0  0  0999 V2000
   -0.8930   47.3140   69.0850 C   0  0  2  0  0  3  0  0  0  0  0  0
   -0.7280   47.3850   70.6180 C   0  0  0  0  0  2  0  0  0  0  0  0
    0.5460   48.1230   71.0070 C   0  0  0  0  0  2  0  0  0  0  0  0
    1.6860   47.3970   70.4760 N   0  0  2  0  0  0  0  0  0  0  0  0
    2.6980   47.1190   71.3260 C   0  0  1  0  0  3  0  0  0  0  0  0
    2.6790   47.1590   72.6390 N   0  0  0  0  0  0  0  0  0  0  0  0
    3.9210   46.7630   72.9980 C   0  0  0  0  0  0  0  0  0  0  0  0
    4.1910   46.6580   74.2990 N   0  0  0  0  0  0  0  0  0  0  0  0
    4.7370   46.4590   71.9950 N   0  0  0  0  0  2  0  0  0  0  0  0
    3.9530   46.7230   70.9360 N   0  0  0  0  0  0  0  0  0  0  0  0
    1.6930   47.2650   69.0280 C   0  0  0  0  0  2  0  0  0  0  0  0
    0.3910   46.5620   68.6030 C   0  0  0  0  0  2  0  0  0  0  0  0
    3.3840   46.6150   74.9090 H   0  0  0  0  0  0  0  0  0  0  0  0
    4.9440   46.0360   74.5510 H   0  0  0  0  0  0  0  0  0  0  0  0
    4.3180   46.6150   70.0070 H   0  0  0  0  0  0  0  0  0  0  0  0
   -0.7770   48.5050   66.9490 C   0  0  0  0  0  1  0  0  0  0  0  0
   -1.1200   48.6160   68.3840 N   0  0  0  0  0  0  0  0  0  0  0  0
   -2.5160   49.1480   68.4270 C   0  0  0  0  0  2  0  0  0  0  0  0
   -3.6210   48.6320   67.4710 C   0  0  0  0  0  2  0  0  0  0  0  0
   -4.5640   47.5840   68.0180 C   0  0  0  0  0  0  0  0  0  0  0  0
   -4.1520   46.2540   68.1780 C   0  0  0  0  0  3  0  0  0  0  0  0
   -5.0470   45.2770   68.6150 C   0  0  0  0  0  3  0  0  0  0  0  0
   -6.3650   45.6230   68.9020 C   0  0  0  0  0  0  0  0  0  0  0  0
   -7.5770   44.2900   69.4720 Br  0  0  0  0  0  0  0  0  0  0  0  0
   -6.7930   46.9410   68.7640 C   0  0  0  0  0  3  0  0  0  0  0  0
   -5.8890   47.9240   68.3480 C   0  0  0  0  0  3  0  0  0  0  0  0
  1 17  1  6  0  0  0
  1  2  1  0  0  0  0
  2  3  1  0  0  0  0
  4 11  1  6  0  0  0
  4  3  1  0  0  0  0
  4  5  1  0  0  0  0
  5  6  1  1  0  0  0
  6  7  2  0  0  0  0
  7  8  1  0  0  0  0
  8 14  1  0  0  0  0
  8 13  1  0  0  0  0
  9  7  1  0  0  0  0
 10  5  1  0  0  0  0
 10  9  1  0  0  0  0
 12 11  1  0  0  0  0
 12  1  1  0  0  0  0
 15 10  1  0  0  0  0
 16 17  1  0  0  0  0
 17 18  1  0  0  0  0
 19 20  1  0  0  0  0
 19 18  1  0  0  0  0
 20 21  2  0  0  0  0
 20 26  1  0  0  0  0
 21 22  1  0  0  0  0
 22 23  2  0  0  0  0
 23 24  1  0  0  0  0
 25 23  1  0  0  0  0
 26 25  2  0  0  0  0
M  END
>  <MODEL>
3

>  <REMARK>
 VINA RESULT:      -8.3      5.251      7.973
  Name = CHEMBL4086986-348
  5 active torsions:
  status: ('A' for Active; 'I' for Inactive)
    1  A    between atoms: C_1  and  N_2
    2  A    between atoms: N_2  and  C_3
    3  A    between atoms: N_2  and  C_12
    4  A    between atoms: C_3  and  C_4
    5  A    between atoms: C_4  and  C_5
                            x       y       z     vdW  Elec       q    Type
                         _______ _______ _______ _____ _____    ______ ____

>  <TORSDO>
F 4

>  <rfscore_v2>
7.448254345432339

>  <vina_affinity>
-7.36293827099291

>  <vina_gauss1>
101.20222991102352

>  <vina_gauss2>
1244.2757578482447

>  <vina_repulsion>
2.8643876397451127

>  <vina_hydrophobic>
30.468642610361872

>  <vina_hydrogen>
1.4139210931706114

>  <vina_intra_gauss1>
20.931796042410042

>  <vina_intra_gauss2>
133.20485519721677

>  <vina_intra_repulsion>
0.36334421688277607

>  <vina_intra_hydrophobic>
9.665384496890395

>  <vina_intra_hydrogen>
0.0

>  <vina_num_rotors>
5.0

>  <rfscore_v3>
7.503338864690869

>  <PLEClinear_p5_l1_s65536>
3.416213475519781

>  <nnscore>
7.563016175111467

$$$$
CHEMBL4086986-348
 OpenBabel12202021073D

 26 28  0  0  1  0  0  0  0  0999 V2000
   -2.3900   49.6890   67.1710 C   0  0  2  0  0  3  0  0  0  0  0  0
   -1.1870   48.7520   66.9320 C   0  0  0  0  0  2  0  0  0  0  0  0
   -1.0420   47.7350   68.0560 C   0  0  0  0  0  2  0  0  0  0  0  0
   -0.8040   48.4440   69.3000 N   0  0  2  0  0  0  0  0  0  0  0  0
    0.2360   48.0400   70.0590 C   0  0  1  0  0  3  0  0  0  0  0  0
    1.2460   47.2800   69.6990 N   0  0  0  0  0  0  0  0  0  0  0  0
    2.0160   47.2100   70.8080 C   0  0  0  0  0  0  0  0  0  0  0  0
    3.1590   46.5290   70.7320 N   0  0  0  0  0  0  0  0  0  0  0  0
    1.5690   47.8890   71.8590 N   0  0  0  0  0  2  0  0  0  0  0  0
    0.4190   48.3850   71.3750 N   0  0  0  0  0  0  0  0  0  0  0  0
   -1.8710   49.3570   69.6830 C   0  0  0  0  0  2  0  0  0  0  0  0
   -2.0690   50.3700   68.5420 C   0  0  0  0  0  2  0  0  0  0  0  0
    3.4980   46.3510   69.7950 H   0  0  0  0  0  0  0  0  0  0  0  0
    3.8740   46.7800   71.3990 H   0  0  0  0  0  0  0  0  0  0  0  0
   -0.1770   48.9330   71.9690 H   0  0  0  0  0  0  0  0  0  0  0  0
   -4.8010   50.0790   66.9950 C   0  0  0  0  0  1  0  0  0  0  0  0
   -3.7430   49.0520   67.1240 N   0  0  0  0  0  0  0  0  0  0  0  0
   -3.9750   48.0890   66.0050 C   0  0  0  0  0  2  0  0  0  0  0  0
   -5.1840   47.1200   65.9930 C   0  0  0  0  0  2  0  0  0  0  0  0
   -5.3430   46.2100   67.1900 C   0  0  0  0  0  0  0  0  0  0  0  0
   -4.3150   46.0710   68.1330 C   0  0  0  0  0  3  0  0  0  0  0  0
   -4.4380   45.1760   69.1960 C   0  0  0  0  0  3  0  0  0  0  0  0
   -5.5950   44.4140   69.3300 C   0  0  0  0  0  0  0  0  0  0  0  0
   -5.7450   43.1890   70.7610 Br  0  0  0  0  0  0  0  0  0  0  0  0
   -6.6360   44.5460   68.4140 C   0  0  0  0  0  3  0  0  0  0  0  0
   -6.5200   45.4600   67.3610 C   0  0  0  0  0  3  0  0  0  0  0  0
  1 17  1  1  0  0  0
  1 12  1  0  0  0  0
  2  1  1  0  0  0  0
  2  3  1  0  0  0  0
  4  3  1  1  0  0  0
  4 11  1  0  0  0  0
  4  5  1  0  0  0  0
  5  6  1  6  0  0  0
  5 10  1  0  0  0  0
  6  7  2  0  0  0  0
  7  9  1  0  0  0  0
  8  7  1  0  0  0  0
  8 14  1  0  0  0  0
 10  9  1  0  0  0  0
 10 15  1  0  0  0  0
 12 11  1  0  0  0  0
 13  8  1  0  0  0  0
 16 17  1  0  0  0  0
 18 17  1  0  0  0  0
 19 18  1  0  0  0  0
 19 20  1  0  0  0  0
 20 26  2  0  0  0  0
 20 21  1  0  0  0  0
 21 22  2  0  0  0  0
 22 23  1  0  0  0  0
 23 24  1  0  0  0  0
 25 23  2  0  0  0  0
 26 25  1  0  0  0  0
M  END
>  <MODEL>
4

>  <REMARK>
 VINA RESULT:      -8.3      5.304      7.586
  Name = CHEMBL4086986-348
  5 active torsions:
  status: ('A' for Active; 'I' for Inactive)
    1  A    between atoms: C_1  and  N_2
    2  A    between atoms: N_2  and  C_3
    3  A    between atoms: N_2  and  C_12
    4  A    between atoms: C_3  and  C_4
    5  A    between atoms: C_4  and  C_5
                            x       y       z     vdW  Elec       q    Type
                         _______ _______ _______ _____ _____    ______ ____

>  <TORSDO>
F 4

>  <rfscore_v2>
6.702457913308913

>  <vina_affinity>
-7.399121052052337

>  <vina_gauss1>
80.8691689861426

>  <vina_gauss2>
1104.0904846450976

>  <vina_repulsion>
1.3597665339474634

>  <vina_hydrophobic>
39.34845972470785

>  <vina_hydrogen>
1.2749362781616513

>  <vina_intra_gauss1>
22.255344753401964

>  <vina_intra_gauss2>
171.46948466303854

>  <vina_intra_repulsion>
0.6179955503559268

>  <vina_intra_hydrophobic>
7.135138470759765

>  <vina_intra_hydrogen>
0.0

>  <vina_num_rotors>
5.0

>  <rfscore_v3>
6.912376927588758

>  <PLEClinear_p5_l1_s65536>
1.6540923372477179

>  <nnscore>
7.735650615871386

$$$$
CHEMBL4086986-348
 OpenBabel12202021073D

 26 28  0  0  1  0  0  0  0  0999 V2000
   -1.1990   49.2170   65.1860 C   0  0  2  0  0  3  0  0  0  0  0  0
   -0.6460   47.7810   65.0630 C   0  0  0  0  0  2  0  0  0  0  0  0
    0.8620   47.7440   65.2720 C   0  0  0  0  0  2  0  0  0  0  0  0
    1.4950   48.5470   64.2410 N   0  0  2  0  0  0  0  0  0  0  0  0
    2.5150   47.9890   63.5560 C   0  0  1  0  0  3  0  0  0  0  0  0
    2.8360   46.7170   63.4870 N   0  0  0  0  0  0  0  0  0  0  0  0
    3.8990   46.6910   62.6520 C   0  0  0  0  0  0  0  0  0  0  0  0
    4.4260   45.5050   62.3490 N   0  0  0  0  0  0  0  0  0  0  0  0
    4.2760   47.8690   62.1690 N   0  0  0  0  0  2  0  0  0  0  0  0
    3.4050   48.6890   62.7800 N   0  0  0  0  0  0  0  0  0  0  0  0
    1.0960   49.9460   64.2410 C   0  0  0  0  0  2  0  0  0  0  0  0
   -0.4330   50.0100   64.0760 C   0  0  0  0  0  2  0  0  0  0  0  0
    3.8350   44.7050   62.5390 H   0  0  0  0  0  0  0  0  0  0  0  0
    4.9410   45.4520   61.4830 H   0  0  0  0  0  0  0  0  0  0  0  0
    3.4650   49.6800   62.6320 H   0  0  0  0  0  0  0  0  0  0  0  0
   -1.1290   51.3220   66.4330 C   0  0  0  0  0  1  0  0  0  0  0  0
   -1.1070   49.8460   66.5400 N   0  0  0  0  0  0  0  0  0  0  0  0
   -2.1950   49.4930   67.5010 C   0  0  0  0  0  2  0  0  0  0  0  0
   -2.1370   48.2130   68.3730 C   0  0  0  0  0  2  0  0  0  0  0  0
   -0.8360   47.9330   69.0900 C   0  0  0  0  0  0  0  0  0  0  0  0
    0.0730   46.9880   68.5960 C   0  0  0  0  0  3  0  0  0  0  0  0
    1.2380   46.6810   69.3000 C   0  0  0  0  0  3  0  0  0  0  0  0
    1.5080   47.3230   70.5050 C   0  0  0  0  0  0  0  0  0  0  0  0
    3.0780   46.8860   71.4630 Br  0  0  0  0  0  0  0  0  0  0  0  0
    0.6280   48.2760   71.0080 C   0  0  0  0  0  3  0  0  0  0  0  0
   -0.5290   48.5990   70.2900 C   0  0  0  0  0  3  0  0  0  0  0  0
  1 17  1  1  0  0  0
  2  1  1  0  0  0  0
  2  3  1  0  0  0  0
  4 11  1  1  0  0  0
  4  3  1  0  0  0  0
  5  6  1  6  0  0  0
  5  4  1  0  0  0  0
  7  6  2  0  0  0  0
  8 13  1  0  0  0  0
  8  7  1  0  0  0  0
  9  7  1  0  0  0  0
  9 10  1  0  0  0  0
 10  5  1  0  0  0  0
 12 11  1  0  0  0  0
 12  1  1  0  0  0  0
 14  8  1  0  0  0  0
 15 10  1  0  0  0  0
 16 17  1  0  0  0  0
 17 18  1  0  0  0  0
 18 19  1  0  0  0  0
 19 20  1  0  0  0  0
 20 26  1  0  0  0  0
 21 20  2  0  0  0  0
 21 22  1  0  0  0  0
 22 23  2  0  0  0  0
 23 25  1  0  0  0  0
 23 24  1  0  0  0  0
 26 25  2  0  0  0  0
M  END
>  <MODEL>
5

>  <REMARK>
 VINA RESULT:      -7.9      4.087      7.500
  Name = CHEMBL4086986-348
  5 active torsions:
  status: ('A' for Active; 'I' for Inactive)
    1  A    between atoms: C_1  and  N_2
    2  A    between atoms: N_2  and  C_3
    3  A    between atoms: N_2  and  C_12
    4  A    between atoms: C_3  and  C_4
    5  A    between atoms: C_4  and  C_5
                            x       y       z     vdW  Elec       q    Type
                         _______ _______ _______ _____ _____    ______ ____

>  <TORSDO>
F 4

>  <rfscore_v2>
6.822060293539795

>  <vina_affinity>
-7.1019713123798445

>  <vina_gauss1>
84.82758994009964

>  <vina_gauss2>
1146.575970608676

>  <vina_repulsion>
1.6282127772347417

>  <vina_hydrophobic>
32.5455123479621

>  <vina_hydrogen>
0.7980493364673734

>  <vina_intra_gauss1>
27.406818291152604

>  <vina_intra_gauss2>
173.47001605135813

>  <vina_intra_repulsion>
0.5456869771600353

>  <vina_intra_hydrophobic>
9.174961931882683

>  <vina_intra_hydrogen>
0.0

>  <vina_num_rotors>
5.0

>  <rfscore_v3>
6.914680399450226

>  <PLEClinear_p5_l1_s65536>
3.8977441884681108

>  <nnscore>
7.4513781161690344

$$$$
CHEMBL4086986-348
 OpenBabel12202021073D

 26 28  0  0  1  0  0  0  0  0999 V2000
   -2.7150   47.4060   67.8510 C   0  0  2  0  0  3  0  0  0  0  0  0
   -3.1210   48.7380   67.1860 C   0  0  0  0  0  2  0  0  0  0  0  0
   -4.3670   49.3270   67.8330 C   0  0  0  0  0  2  0  0  0  0  0  0
   -5.4680   48.3970   67.6570 N   0  0  2  0  0  0  0  0  0  0  0  0
   -6.6260   48.8880   67.1670 C   0  0  1  0  0  3  0  0  0  0  0  0
   -6.8170   50.0330   66.5520 N   0  0  0  0  0  0  0  0  0  0  0  0
   -8.1320   50.0220   66.2390 C   0  0  0  0  0  0  0  0  0  0  0  0
   -8.6190   51.0570   65.5540 N   0  0  0  0  0  0  0  0  0  0  0  0
   -8.7980   48.9330   66.6040 N   0  0  0  0  0  2  0  0  0  0  0  0
   -7.8320   48.2350   67.2230 N   0  0  0  0  0  0  0  0  0  0  0  0
   -5.2500   47.0900   68.2580 C   0  0  0  0  0  2  0  0  0  0  0  0
   -3.9680   46.4910   67.6530 C   0  0  0  0  0  2  0  0  0  0  0  0
   -7.9300   51.6320   65.0860 H   0  0  0  0  0  0  0  0  0  0  0  0
   -9.4580   50.8850   65.0200 H   0  0  0  0  0  0  0  0  0  0  0  0
   -8.0490   47.3510   67.6470 H   0  0  0  0  0  0  0  0  0  0  0  0
   -1.6260   46.2200   69.6960 C   0  0  0  0  0  1  0  0  0  0  0  0
   -2.2570   47.4900   69.2730 N   0  0  0  0  0  0  0  0  0  0  0  0
   -1.2580   48.5600   69.5770 C   0  0  0  0  0  2  0  0  0  0  0  0
    0.2470   48.3950   69.2470 C   0  0  0  0  0  2  0  0  0  0  0  0
    0.6470   48.5250   67.7950 C   0  0  0  0  0  0  0  0  0  0  0  0
    1.3070   47.4810   67.1320 C   0  0  0  0  0  3  0  0  0  0  0  0
    1.7390   47.6330   65.8130 C   0  0  0  0  0  3  0  0  0  0  0  0
    1.5080   48.8310   65.1430 C   0  0  0  0  0  0  0  0  0  0  0  0
    2.1150   49.0360   63.3650 Br  0  0  0  0  0  0  0  0  0  0  0  0
    0.8410   49.8760   65.7760 C   0  0  0  0  0  3  0  0  0  0  0  0
    0.3890   49.7150   67.0910 C   0  0  0  0  0  3  0  0  0  0  0  0
  1 17  1  1  0  0  0
  2  3  1  0  0  0  0
  2  1  1  0  0  0  0
  4  3  1  1  0  0  0
  4 11  1  0  0  0  0
  5  6  1  6  0  0  0
  5 10  1  0  0  0  0
  5  4  1  0  0  0  0
  7  6  2  0  0  0  0
  7  9  1  0  0  0  0
  8  7  1  0  0  0  0
  9 10  1  0  0  0  0
 10 15  1  0  0  0  0
 12  1  1  0  0  0  0
 12 11  1  0  0  0  0
 13  8  1  0  0  0  0
 14  8  1  0  0  0  0
 17 18  1  0  0  0  0
 17 16  1  0  0  0  0
 19 18  1  0  0  0  0
 20 19  1  0  0  0  0
 21 20  1  0  0  0  0
 22 21  2  0  0  0  0
 23 25  2  0  0  0  0
 23 22  1  0  0  0  0
 24 23  1  0  0  0  0
 25 26  1  0  0  0  0
 26 20  2  0  0  0  0
M  END
>  <MODEL>
6

>  <REMARK>
 VINA RESULT:      -7.7      3.566      5.644
  Name = CHEMBL4086986-348
  5 active torsions:
  status: ('A' for Active; 'I' for Inactive)
    1  A    between atoms: C_1  and  N_2
    2  A    between atoms: N_2  and  C_3
    3  A    between atoms: N_2  and  C_12
    4  A    between atoms: C_3  and  C_4
    5  A    between atoms: C_4  and  C_5
                            x       y       z     vdW  Elec       q    Type
                         _______ _______ _______ _____ _____    ______ ____

>  <TORSDO>
F 4

>  <rfscore_v2>
6.600874573648573

>  <vina_affinity>
-6.984409531056228

>  <vina_gauss1>
63.37878936396419

>  <vina_gauss2>
1113.3870467197776

>  <vina_repulsion>
1.1664432575979733

>  <vina_hydrophobic>
41.62957838541329

>  <vina_hydrogen>
0.9277706840090078

>  <vina_intra_gauss1>
28.87354080698889

>  <vina_intra_gauss2>
143.73186523492984

>  <vina_intra_repulsion>
0.23099403651767073

>  <vina_intra_hydrophobic>
12.276323896228604

>  <vina_intra_hydrogen>
0.0

>  <vina_num_rotors>
5.0

>  <rfscore_v3>
6.372580551520377

>  <PLEClinear_p5_l1_s65536>
2.3650767465750535

>  <nnscore>
7.31177955611759

$$$$
CHEMBL4086986-348
 OpenBabel12202021073D

 26 28  0  0  1  0  0  0  0  0999 V2000
   -0.4620   49.4440   66.3480 C   0  0  2  0  0  3  0  0  0  0  0  0
   -1.2140   48.1000   66.2470 C   0  0  0  0  0  2  0  0  0  0  0  0
   -2.1750   47.9100   67.4130 C   0  0  0  0  0  2  0  0  0  0  0  0
   -1.4120   47.8940   68.6480 N   0  0  2  0  0  0  0  0  0  0  0  0
   -1.6410   46.8790   69.5080 C   0  0  1  0  0  3  0  0  0  0  0  0
   -2.2490   45.7400   69.2640 N   0  0  0  0  0  0  0  0  0  0  0  0
   -2.1810   45.0730   70.4380 C   0  0  0  0  0  0  0  0  0  0  0  0
   -2.6860   43.8400   70.4850 N   0  0  0  0  0  0  0  0  0  0  0  0
   -1.5550   45.7080   71.4220 N   0  0  0  0  0  2  0  0  0  0  0  0
   -1.2460   46.8700   70.8230 N   0  0  0  0  0  0  0  0  0  0  0  0
   -0.6610   49.1130   68.9060 C   0  0  0  0  0  2  0  0  0  0  0  0
    0.2880   49.3530   67.7180 C   0  0  0  0  0  2  0  0  0  0  0  0
   -2.8300   43.3940   69.5870 H   0  0  0  0  0  0  0  0  0  0  0  0
   -2.3180   43.2330   71.2020 H   0  0  0  0  0  0  0  0  0  0  0  0
   -0.7810   47.5920   71.3440 H   0  0  0  0  0  0  0  0  0  0  0  0
   -0.4430   51.8890   66.2250 C   0  0  0  0  0  1  0  0  0  0  0  0
   -1.2940   50.6790   66.2050 N   0  0  0  0  0  0  0  0  0  0  0  0
   -2.1090   50.7770   64.9560 C   0  0  0  0  0  2  0  0  0  0  0  0
   -3.6270   51.0870   64.9880 C   0  0  0  0  0  2  0  0  0  0  0  0
   -4.4880   50.1960   65.8560 C   0  0  0  0  0  0  0  0  0  0  0  0
   -4.6730   50.4740   67.2170 C   0  0  0  0  0  3  0  0  0  0  0  0
   -5.4080   49.6100   68.0290 C   0  0  0  0  0  3  0  0  0  0  0  0
   -5.9720   48.4590   67.4840 C   0  0  0  0  0  0  0  0  0  0  0  0
   -6.9480   47.2830   68.5950 Br  0  0  0  0  0  0  0  0  0  0  0  0
   -5.8130   48.1700   66.1310 C   0  0  0  0  0  3  0  0  0  0  0  0
   -5.0950   49.0490   65.3140 C   0  0  0  0  0  3  0  0  0  0  0  0
  1 17  1  1  0  0  0
  1 12  1  0  0  0  0
  2  1  1  0  0  0  0
  2  3  1  0  0  0  0
  4  3  1  1  0  0  0
  4 11  1  0  0  0  0
  4  5  1  0  0  0  0
  5  6  1  6  0  0  0
  5 10  1  0  0  0  0
  6  7  2  0  0  0  0
  7  8  1  0  0  0  0
  7  9  1  0  0  0  0
  8 14  1  0  0  0  0
 10 15  1  0  0  0  0
 10  9  1  0  0  0  0
 12 11  1  0  0  0  0
 13  8  1  0  0  0  0
 17 16  1  0  0  0  0
 18 19  1  0  0  0  0
 18 17  1  0  0  0  0
 19 20  1  0  0  0  0
 20 21  1  0  0  0  0
 21 22  2  0  0  0  0
 23 22  1  0  0  0  0
 23 24  1  0  0  0  0
 25 23  2  0  0  0  0
 26 20  2  0  0  0  0
 26 25  1  0  0  0  0
M  END
>  <MODEL>
7

>  <REMARK>
 VINA RESULT:      -7.5      4.263      6.068
  Name = CHEMBL4086986-348
  5 active torsions:
  status: ('A' for Active; 'I' for Inactive)
    1  A    between atoms: C_1  and  N_2
    2  A    between atoms: N_2  and  C_3
    3  A    between atoms: N_2  and  C_12
    4  A    between atoms: C_3  and  C_4
    5  A    between atoms: C_4  and  C_5
                            x       y       z     vdW  Elec       q    Type
                         _______ _______ _______ _____ _____    ______ ____

>  <TORSDO>
F 4

>  <rfscore_v2>
6.829542776667774

>  <vina_affinity>
-6.453615197917239

>  <vina_gauss1>
49.9712318908245

>  <vina_gauss2>
1146.917201470837

>  <vina_repulsion>
0.8274260921956329

>  <vina_hydrophobic>
18.00116796383611

>  <vina_hydrogen>
1.2051549409179665

>  <vina_intra_gauss1>
36.306192793868206

>  <vina_intra_gauss2>
185.85724664045895

>  <vina_intra_repulsion>
0.24463533213231675

>  <vina_intra_hydrophobic>
12.828241677944948

>  <vina_intra_hydrogen>
0.0

>  <vina_num_rotors>
5.0

>  <rfscore_v3>
6.918580256926083

>  <PLEClinear_p5_l1_s65536>
1.842445542385019

>  <nnscore>
6.354279976189082

$$$$
CHEMBL4086986-348
 OpenBabel12202021073D

 26 28  0  0  1  0  0  0  0  0999 V2000
   -1.4630   48.2270   66.3200 C   0  0  2  0  0  3  0  0  0  0  0  0
   -2.2380   48.7530   65.0930 C   0  0  0  0  0  2  0  0  0  0  0  0
   -3.1350   49.9270   65.4630 C   0  0  0  0  0  2  0  0  0  0  0  0
   -4.1120   49.4780   66.4390 N   0  0  2  0  0  0  0  0  0  0  0  0
   -5.4080   49.7680   66.2020 C   0  0  1  0  0  3  0  0  0  0  0  0
   -5.9520   50.1490   65.0670 N   0  0  0  0  0  0  0  0  0  0  0  0
   -7.2670   50.2710   65.3580 C   0  0  0  0  0  0  0  0  0  0  0  0
   -8.0950   50.6080   64.3700 N   0  0  0  0  0  0  0  0  0  0  0  0
   -7.6060   49.9790   66.6090 N   0  0  0  0  0  2  0  0  0  0  0  0
   -6.4060   49.6930   67.1410 N   0  0  0  0  0  0  0  0  0  0  0  0
   -3.5360   48.9730   67.6760 C   0  0  0  0  0  2  0  0  0  0  0  0
   -2.5880   47.8120   67.3250 C   0  0  0  0  0  2  0  0  0  0  0  0
   -7.7320   50.4800   63.4340 H   0  0  0  0  0  0  0  0  0  0  0  0
   -9.0620   50.3420   64.4860 H   0  0  0  0  0  0  0  0  0  0  0  0
   -6.3360   49.4600   68.1150 H   0  0  0  0  0  0  0  0  0  0  0  0
    0.0270   48.6500   68.2160 C   0  0  0  0  0  1  0  0  0  0  0  0
   -0.4490   49.1550   66.9090 N   0  0  0  0  0  0  0  0  0  0  0  0
    0.7810   49.3860   66.0910 C   0  0  0  0  0  2  0  0  0  0  0  0
    1.3060   48.3330   65.0840 C   0  0  0  0  0  2  0  0  0  0  0  0
    1.9830   48.8580   63.8370 C   0  0  0  0  0  0  0  0  0  0  0  0
    3.0630   48.1760   63.2600 C   0  0  0  0  0  3  0  0  0  0  0  0
    3.7300   48.7010   62.1530 C   0  0  0  0  0  3  0  0  0  0  0  0
    3.3190   49.9140   61.6080 C   0  0  0  0  0  0  0  0  0  0  0  0
    4.2410   50.6290   60.1220 Br  0  0  0  0  0  0  0  0  0  0  0  0
    2.2390   50.6020   62.1550 C   0  0  0  0  0  3  0  0  0  0  0  0
    1.5570   50.0630   63.2510 C   0  0  0  0  0  3  0  0  0  0  0  0
  1 17  1  1  0  0  0
  1 12  1  0  0  0  0
  2  3  1  0  0  0  0
  2  1  1  0  0  0  0
  4  3  1  1  0  0  0
  4 11  1  0  0  0  0
  5  6  1  6  0  0  0
  5  4  1  0  0  0  0
  5 10  1  0  0  0  0
  6  7  2  0  0  0  0
  7  9  1  0  0  0  0
  8 14  1  0  0  0  0
  8  7  1  0  0  0  0
  9 10  1  0  0  0  0
 10 15  1  0  0  0  0
 12 11  1  0  0  0  0
 13  8  1  0  0  0  0
 17 16  1  0  0  0  0
 18 17  1  0  0  0  0
 19 18  1  0  0  0  0
 20 19  1  0  0  0  0
 21 20  1  0  0  0  0
 22 21  2  0  0  0  0
 23 22  1  0  0  0  0
 23 25  2  0  0  0  0
 24 23  1  0  0  0  0
 25 26  1  0  0  0  0
 26 20  2  0  0  0  0
M  END
>  <MODEL>
8

>  <REMARK>
 VINA RESULT:      -7.4      3.286      4.627
  Name = CHEMBL4086986-348
  5 active torsions:
  status: ('A' for Active; 'I' for Inactive)
    1  A    between atoms: C_1  and  N_2
    2  A    between atoms: N_2  and  C_3
    3  A    between atoms: N_2  and  C_12
    4  A    between atoms: C_3  and  C_4
    5  A    between atoms: C_4  and  C_5
                            x       y       z     vdW  Elec       q    Type
                         _______ _______ _______ _____ _____    ______ ____

>  <TORSDO>
F 4

>  <rfscore_v2>
6.035706614052613

>  <vina_affinity>
-6.988718306048201

>  <vina_gauss1>
55.613252943196414

>  <vina_gauss2>
1035.3969701563592

>  <vina_repulsion>
0.3556785052544411

>  <vina_hydrophobic>
45.7326724325941

>  <vina_hydrogen>
0.6882306334111993

>  <vina_intra_gauss1>
16.76236024084398

>  <vina_intra_gauss2>
132.1702159499522

>  <vina_intra_repulsion>
0.1730463133638601

>  <vina_intra_hydrophobic>
8.52103204111897

>  <vina_intra_hydrogen>
0.0

>  <vina_num_rotors>
5.0

>  <rfscore_v3>
6.104819277444775

>  <PLEClinear_p5_l1_s65536>
1.9896879826873677

>  <nnscore>
6.713872345046804

$$$$
CHEMBL4086986-348
 OpenBabel12202021073D

 26 28  0  0  1  0  0  0  0  0999 V2000
   -7.6710   45.4470   68.1840 C   0  0  2  0  0  3  0  0  0  0  0  0
   -6.7870   46.0720   69.2850 C   0  0  0  0  0  2  0  0  0  0  0  0
   -5.6210   45.1620   69.6460 C   0  0  0  0  0  2  0  0  0  0  0  0
   -6.1480   43.9120   70.1640 N   0  0  2  0  0  0  0  0  0  0  0  0
   -5.6470   43.4630   71.3340 C   0  0  1  0  0  3  0  0  0  0  0  0
   -4.9550   44.1370   72.2240 N   0  0  0  0  0  0  0  0  0  0  0  0
   -4.7330   43.2430   73.2140 C   0  0  0  0  0  0  0  0  0  0  0  0
   -4.0790   43.6620   74.2970 N   0  0  0  0  0  0  0  0  0  0  0  0
   -5.2510   42.0360   73.0220 N   0  0  0  0  0  2  0  0  0  0  0  0
   -5.8020   42.1830   71.8050 N   0  0  0  0  0  0  0  0  0  0  0  0
   -6.9870   43.1810   69.2280 C   0  0  0  0  0  2  0  0  0  0  0  0
   -8.1520   44.0960   68.8100 C   0  0  0  0  0  2  0  0  0  0  0  0
   -4.0390   44.6660   74.4210 H   0  0  0  0  0  0  0  0  0  0  0  0
   -4.2370   43.1390   75.1450 H   0  0  0  0  0  0  0  0  0  0  0  0
   -6.2550   41.4020   71.3650 H   0  0  0  0  0  0  0  0  0  0  0  0
   -8.0360   44.8550   65.8360 C   0  0  0  0  0  1  0  0  0  0  0  0
   -7.0360   45.2880   66.8390 N   0  0  0  0  0  0  0  0  0  0  0  0
   -6.3940   46.5110   66.2690 C   0  0  0  0  0  2  0  0  0  0  0  0
   -4.8820   46.8010   66.4430 C   0  0  0  0  0  2  0  0  0  0  0  0
   -4.5060   48.1560   67.0000 C   0  0  0  0  0  0  0  0  0  0  0  0
   -4.7510   49.3290   66.2740 C   0  0  0  0  0  3  0  0  0  0  0  0
   -4.3370   50.5700   66.7600 C   0  0  0  0  0  3  0  0  0  0  0  0
   -3.6760   50.6490   67.9830 C   0  0  0  0  0  0  0  0  0  0  0  0
   -3.0990   52.3300   68.6240 Br  0  0  0  0  0  0  0  0  0  0  0  0
   -3.4350   49.4980   68.7290 C   0  0  0  0  0  3  0  0  0  0  0  0
   -3.8710   48.2580   68.2510 C   0  0  0  0  0  3  0  0  0  0  0  0
  1 17  1  6  0  0  0
  1 12  1  0  0  0  0
  1  2  1  0  0  0  0
  2  3  1  0  0  0  0
  4  3  1  6  0  0  0
  4 11  1  0  0  0  0
  4  5  1  0  0  0  0
  5 10  1  0  0  0  0
  5  6  1  1  0  0  0
  6  7  2  0  0  0  0
  7  8  1  0  0  0  0
  8 13  1  0  0  0  0
  8 14  1  0  0  0  0
  9  7  1  0  0  0  0
 10  9  1  0  0  0  0
 12 11  1  0  0  0  0
 15 10  1  0  0  0  0
 16 17  1  0  0  0  0
 18 19  1  0  0  0  0
 18 17  1  0  0  0  0
 19 20  1  0  0  0  0
 20 26  1  0  0  0  0
 21 22  1  0  0  0  0
 21 20  2  0  0  0  0
 22 23  2  0  0  0  0
 23 24  1  0  0  0  0
 23 25  1  0  0  0  0
 26 25  2  0  0  0  0
M  END
>  <MODEL>
9

>  <REMARK>
 VINA RESULT:      -7.4      6.165      7.550
  Name = CHEMBL4086986-348
  5 active torsions:
  status: ('A' for Active; 'I' for Inactive)
    1  A    between atoms: C_1  and  N_2
    2  A    between atoms: N_2  and  C_3
    3  A    between atoms: N_2  and  C_12
    4  A    between atoms: C_3  and  C_4
    5  A    between atoms: C_4  and  C_5
                            x       y       z     vdW  Elec       q    Type
                         _______ _______ _______ _____ _____    ______ ____

>  <TORSDO>
F 4

>  <rfscore_v2>
6.5476214729159725

>  <vina_affinity>
-6.549211935414162

>  <vina_gauss1>
61.87000849649041

>  <vina_gauss2>
1045.7129565460905

>  <vina_repulsion>
1.307172756711628

>  <vina_hydrophobic>
28.840096956058396

>  <vina_hydrogen>
1.6220493709540689

>  <vina_intra_gauss1>
23.817330276204608

>  <vina_intra_gauss2>
160.02813100795277

>  <vina_intra_repulsion>
0.22817878011228493

>  <vina_intra_hydrophobic>
10.080790679978888

>  <vina_intra_hydrogen>
0.0

>  <vina_num_rotors>
5.0

>  <rfscore_v3>
6.643956062065389

>  <PLEClinear_p5_l1_s65536>
1.6415589188344228

>  <nnscore>
6.1660501022081595

$$$$
