CHEMBL1215473-210
 OpenBabel12202021053D

 25 27  0  0  0  0  0  0  0  0999 V2000
   -4.3680   43.5480   71.1490 N   0  0  0  0  0  0  0  0  0  0  0  0
   -3.2660   44.1900   70.7780 C   0  0  0  0  0  0  0  0  0  0  0  0
   -2.0440   43.9560   71.2450 N   0  0  0  0  0  0  0  0  0  0  0  0
   -1.3380   44.8830   70.5820 N   0  0  0  0  0  0  0  0  0  0  0  0
   -2.1250   45.6150   69.7320 C   0  0  0  0  0  0  0  0  0  0  0  0
   -1.6660   46.6550   68.9950 N   0  0  0  0  0  0  0  0  0  0  0  0
   -0.2570   46.9070   68.6930 C   0  0  0  0  0  2  0  0  0  0  0  0
    0.0520   48.4220   68.8110 C   0  0  0  0  0  2  0  0  0  0  0  0
   -0.8590   49.3140   68.0520 N   0  0  0  0  0  0  0  0  0  0  0  0
   -2.2530   48.9710   68.4360 C   0  0  0  0  0  2  0  0  0  0  0  0
   -2.6280   47.4810   68.2590 C   0  0  0  0  0  2  0  0  0  0  0  0
   -3.3570   45.1710   69.8430 N   0  0  0  0  0  0  0  0  0  0  0  0
   -4.2540   42.6750   71.6450 H   0  0  0  0  0  0  0  0  0  0  0  0
   -5.1690   43.6020   70.5370 H   0  0  0  0  0  0  0  0  0  0  0  0
   -0.3560   44.9940   70.7860 H   0  0  0  0  0  0  0  0  0  0  0  0
   -0.6120   49.2050   66.6000 C   0  0  0  0  0  2  0  0  0  0  0  0
    0.8560   49.4230   66.2150 C   0  0  0  0  0  2  0  0  0  0  0  0
    0.9600   49.6110   64.8010 O   0  0  0  0  0  0  0  0  0  0  0  0
    1.8190   48.7580   64.1590 C   0  0  0  0  0  0  0  0  0  0  0  0
    2.0250   47.4120   64.4800 C   0  0  0  0  0  3  0  0  0  0  0  0
    2.9140   46.6350   63.7350 C   0  0  0  0  0  3  0  0  0  0  0  0
    3.5990   47.2050   62.6650 C   0  0  0  0  0  0  0  0  0  0  0  0
    4.7810   46.1420   61.6420 Br  0  0  0  0  0  0  0  0  0  0  0  0
    3.4150   48.5450   62.3450 C   0  0  0  0  0  3  0  0  0  0  0  0
    2.5270   49.3200   63.0920 C   0  0  0  0  0  3  0  0  0  0  0  0
  1 13  1  0  0  0  0
  2  1  1  0  0  0  0
  2  3  2  0  0  0  0
  4 15  1  0  0  0  0
  4  3  1  0  0  0  0
  5 12  2  0  0  0  0
  5  4  1  0  0  0  0
  6  5  1  0  0  0  0
  7  8  1  0  0  0  0
  7  6  1  0  0  0  0
  9 10  1  0  0  0  0
  9  8  1  0  0  0  0
 11 10  1  0  0  0  0
 11  6  1  0  0  0  0
 12  2  1  0  0  0  0
 14  1  1  0  0  0  0
 16  9  1  0  0  0  0
 17 16  1  0  0  0  0
 18 17  1  0  0  0  0
 19 20  1  0  0  0  0
 19 18  1  0  0  0  0
 21 20  2  0  0  0  0
 22 21  1  0  0  0  0
 23 22  1  0  0  0  0
 24 22  2  0  0  0  0
 24 25  1  0  0  0  0
 25 19  2  0  0  0  0
M  END
>  <MODEL>
1

>  <REMARK>
 VINA RESULT:      -8.0      0.000      0.000
  Name = CHEMBL1215473-210
  4 active torsions:
  status: ('A' for Active; 'I' for Inactive)
    1  A    between atoms: N_9  and  C_10
    2  A    between atoms: C_10  and  C_11
    3  A    between atoms: C_11  and  O_12
    4  A    between atoms: O_12  and  C_13
                            x       y       z     vdW  Elec       q    Type
                         _______ _______ _______ _____ _____    ______ ____

>  <TORSDO>
F 4

>  <rfscore_v2>
6.47781770923521

>  <vina_affinity>
-7.672626060969663

>  <vina_gauss1>
75.7712038767308

>  <vina_gauss2>
1158.6366489708398

>  <vina_repulsion>
1.4777704897190287

>  <vina_hydrophobic>
30.325679368372978

>  <vina_hydrogen>
2.4152386416290157

>  <vina_intra_gauss1>
12.379189871319163

>  <vina_intra_gauss2>
123.81379577048888

>  <vina_intra_repulsion>
0.023247400402328002

>  <vina_intra_hydrophobic>
0.0

>  <vina_intra_hydrogen>
0.0

>  <vina_num_rotors>
5.0

>  <rfscore_v3>
6.58370760250861

>  <PLEClinear_p5_l1_s65536>
5.782647786463052

>  <nnscore>
6.260169850781542

$$$$
CHEMBL1215473-210
 OpenBabel12202021053D

 25 27  0  0  0  0  0  0  0  0999 V2000
    3.8750   47.0100   74.1960 N   0  0  0  0  0  0  0  0  0  0  0  0
    3.6770   46.9230   72.8860 C   0  0  0  0  0  0  0  0  0  0  0  0
    4.6020   46.6040   71.9870 N   0  0  0  0  0  0  0  0  0  0  0  0
    3.8950   46.6990   70.8510 N   0  0  0  0  0  0  0  0  0  0  0  0
    2.5880   47.0350   71.0880 C   0  0  0  0  0  0  0  0  0  0  0  0
    1.6810   47.2560   70.1070 N   0  0  0  0  0  0  0  0  0  0  0  0
    1.8260   46.8110   68.7200 C   0  0  0  0  0  2  0  0  0  0  0  0
    1.3510   47.9230   67.7490 C   0  0  0  0  0  2  0  0  0  0  0  0
    0.0020   48.4730   68.0300 N   0  0  0  0  0  0  0  0  0  0  0  0
   -0.0300   48.8910   69.4570 C   0  0  0  0  0  2  0  0  0  0  0  0
    0.3630   47.7870   70.4660 C   0  0  0  0  0  2  0  0  0  0  0  0
    2.4370   47.1690   72.3870 N   0  0  0  0  0  0  0  0  0  0  0  0
    4.7140   46.5900   74.5700 H   0  0  0  0  0  0  0  0  0  0  0  0
    3.0620   46.9720   74.7950 H   0  0  0  0  0  0  0  0  0  0  0  0
    4.3640   46.5730   69.9670 H   0  0  0  0  0  0  0  0  0  0  0  0
   -1.0480   47.4910   67.6890 C   0  0  0  0  0  2  0  0  0  0  0  0
   -2.1630   47.4040   68.7390 C   0  0  0  0  0  2  0  0  0  0  0  0
   -2.2930   46.0530   69.1920 O   0  0  0  0  0  0  0  0  0  0  0  0
   -3.5590   45.5340   69.1240 C   0  0  0  0  0  0  0  0  0  0  0  0
   -4.1240   44.6380   70.0370 C   0  0  0  0  0  3  0  0  0  0  0  0
   -5.4390   44.1960   69.8730 C   0  0  0  0  0  3  0  0  0  0  0  0
   -6.1910   44.6530   68.7950 C   0  0  0  0  0  0  0  0  0  0  0  0
   -7.9790   44.0740   68.5920 Br  0  0  0  0  0  0  0  0  0  0  0  0
   -5.6370   45.5320   67.8720 C   0  0  0  0  0  3  0  0  0  0  0  0
   -4.3220   45.9710   68.0360 C   0  0  0  0  0  3  0  0  0  0  0  0
  1 13  1  0  0  0  0
  1 14  1  0  0  0  0
  2  1  1  0  0  0  0
  3  2  2  0  0  0  0
  4  5  1  0  0  0  0
  4  3  1  0  0  0  0
  5 12  2  0  0  0  0
  6 11  1  0  0  0  0
  6  5  1  0  0  0  0
  7  6  1  0  0  0  0
  8  9  1  0  0  0  0
  8  7  1  0  0  0  0
  9 10  1  0  0  0  0
 10 11  1  0  0  0  0
 12  2  1  0  0  0  0
 15  4  1  0  0  0  0
 16  9  1  0  0  0  0
 16 17  1  0  0  0  0
 17 18  1  0  0  0  0
 19 18  1  0  0  0  0
 19 20  1  0  0  0  0
 21 20  2  0  0  0  0
 22 21  1  0  0  0  0
 23 22  1  0  0  0  0
 24 25  1  0  0  0  0
 24 22  2  0  0  0  0
 25 19  2  0  0  0  0
M  END
>  <MODEL>
2

>  <REMARK>
 VINA RESULT:      -7.8      4.949      7.456
  Name = CHEMBL1215473-210
  4 active torsions:
  status: ('A' for Active; 'I' for Inactive)
    1  A    between atoms: N_9  and  C_10
    2  A    between atoms: C_10  and  C_11
    3  A    between atoms: C_11  and  O_12
    4  A    between atoms: O_12  and  C_13
                            x       y       z     vdW  Elec       q    Type
                         _______ _______ _______ _____ _____    ______ ____

>  <TORSDO>
F 4

>  <rfscore_v2>
7.169005320901318

>  <vina_affinity>
-7.773257883378522

>  <vina_gauss1>
107.89531388872332

>  <vina_gauss2>
1188.129471767531

>  <vina_repulsion>
3.042019023793843

>  <vina_hydrophobic>
30.8366456463418

>  <vina_hydrogen>
2.6372134298261694

>  <vina_intra_gauss1>
17.883291917173743

>  <vina_intra_gauss2>
129.7240995942454

>  <vina_intra_repulsion>
1.1565881610832525

>  <vina_intra_hydrophobic>
0.0

>  <vina_intra_hydrogen>
0.0

>  <vina_num_rotors>
5.0

>  <rfscore_v3>
7.336034279387283

>  <PLEClinear_p5_l1_s65536>
5.515869124504051

>  <nnscore>
6.77397832267953

$$$$
CHEMBL1215473-210
 OpenBabel12202021053D

 25 27  0  0  0  0  0  0  0  0999 V2000
    3.7230   45.7680   63.2360 N   0  0  0  0  0  0  0  0  0  0  0  0
    3.0030   46.8370   63.5570 C   0  0  0  0  0  0  0  0  0  0  0  0
    2.9970   47.9890   62.8960 N   0  0  0  0  0  0  0  0  0  0  0  0
    2.1530   48.7100   63.6480 N   0  0  0  0  0  0  0  0  0  0  0  0
    1.6590   47.9840   64.7010 C   0  0  0  0  0  0  0  0  0  0  0  0
    0.8370   48.5000   65.6460 N   0  0  0  0  0  0  0  0  0  0  0  0
    0.0610   49.7310   65.4960 C   0  0  0  0  0  2  0  0  0  0  0  0
    0.1040   50.5540   66.8090 C   0  0  0  0  0  2  0  0  0  0  0  0
   -0.2550   49.8030   68.0380 N   0  0  0  0  0  0  0  0  0  0  0  0
    0.5900   48.5810   68.0860 C   0  0  0  0  0  2  0  0  0  0  0  0
    0.5160   47.6890   66.8240 C   0  0  0  0  0  2  0  0  0  0  0  0
    2.1890   46.7830   64.6440 N   0  0  0  0  0  0  0  0  0  0  0  0
    4.1210   45.7360   62.3090 H   0  0  0  0  0  0  0  0  0  0  0  0
    3.4380   44.8800   63.6220 H   0  0  0  0  0  0  0  0  0  0  0  0
    1.9970   49.6800   63.4230 H   0  0  0  0  0  0  0  0  0  0  0  0
   -1.7030   49.5100   68.0700 C   0  0  0  0  0  2  0  0  0  0  0  0
   -2.0400   48.1920   68.7790 C   0  0  0  0  0  2  0  0  0  0  0  0
   -2.8130   47.3610   67.9070 O   0  0  0  0  0  0  0  0  0  0  0  0
   -3.4720   46.3270   68.5190 C   0  0  0  0  0  0  0  0  0  0  0  0
   -2.9710   45.5420   69.5620 C   0  0  0  0  0  3  0  0  0  0  0  0
   -3.7500   44.5260   70.1210 C   0  0  0  0  0  3  0  0  0  0  0  0
   -5.0350   44.2970   69.6370 C   0  0  0  0  0  0  0  0  0  0  0  0
   -6.0970   42.9400   70.4150 Br  0  0  0  0  0  0  0  0  0  0  0  0
   -5.5400   45.0610   68.5910 C   0  0  0  0  0  3  0  0  0  0  0  0
   -4.7590   46.0730   68.0320 C   0  0  0  0  0  3  0  0  0  0  0  0
  1  2  1  0  0  0  0
  1 14  1  0  0  0  0
  2 12  1  0  0  0  0
  3  2  2  0  0  0  0
  3  4  1  0  0  0  0
  4  5  1  0  0  0  0
  5  6  1  0  0  0  0
  6 11  1  0  0  0  0
  7  6  1  0  0  0  0
  7  8  1  0  0  0  0
  8  9  1  0  0  0  0
  9 16  1  0  0  0  0
  9 10  1  0  0  0  0
 11 10  1  0  0  0  0
 12  5  2  0  0  0  0
 13  1  1  0  0  0  0
 15  4  1  0  0  0  0
 16 17  1  0  0  0  0
 18 19  1  0  0  0  0
 18 17  1  0  0  0  0
 19 20  1  0  0  0  0
 20 21  2  0  0  0  0
 22 21  1  0  0  0  0
 22 23  1  0  0  0  0
 24 22  2  0  0  0  0
 25 19  2  0  0  0  0
 25 24  1  0  0  0  0
M  END
>  <MODEL>
3

>  <REMARK>
 VINA RESULT:      -7.7      4.529      7.961
  Name = CHEMBL1215473-210
  4 active torsions:
  status: ('A' for Active; 'I' for Inactive)
    1  A    between atoms: N_9  and  C_10
    2  A    between atoms: C_10  and  C_11
    3  A    between atoms: C_11  and  O_12
    4  A    between atoms: O_12  and  C_13
                            x       y       z     vdW  Elec       q    Type
                         _______ _______ _______ _____ _____    ______ ____

>  <TORSDO>
F 4

>  <rfscore_v2>
6.359136293539798

>  <vina_affinity>
-7.477724115412976

>  <vina_gauss1>
88.92146547853113

>  <vina_gauss2>
1062.6095233282763

>  <vina_repulsion>
1.1797911615273795

>  <vina_hydrophobic>
27.45539044560678

>  <vina_hydrogen>
1.77790371176126

>  <vina_intra_gauss1>
15.056839183036471

>  <vina_intra_gauss2>
130.86618758141228

>  <vina_intra_repulsion>
0.6080847227917696

>  <vina_intra_hydrophobic>
0.0

>  <vina_intra_hydrogen>
0.0

>  <vina_num_rotors>
5.0

>  <rfscore_v3>
6.694373036630038

>  <PLEClinear_p5_l1_s65536>
3.0088642379075967

>  <nnscore>
6.239379493765702

$$$$
CHEMBL1215473-210
 OpenBabel12202021053D

 25 27  0  0  0  0  0  0  0  0999 V2000
   -1.9100   54.1290   68.8160 N   0  0  0  0  0  0  0  0  0  0  0  0
   -1.9720   52.8210   68.5930 C   0  0  0  0  0  0  0  0  0  0  0  0
   -2.8530   51.9880   69.1380 N   0  0  0  0  0  0  0  0  0  0  0  0
   -2.4520   50.8190   68.6170 N   0  0  0  0  0  0  0  0  0  0  0  0
   -1.3860   50.9750   67.7700 C   0  0  0  0  0  0  0  0  0  0  0  0
   -0.7530   49.9420   67.1640 N   0  0  0  0  0  0  0  0  0  0  0  0
   -1.3120   48.6000   67.0030 C   0  0  0  0  0  2  0  0  0  0  0  0
   -0.2220   47.5310   67.2740 C   0  0  0  0  0  2  0  0  0  0  0  0
    1.0440   47.7130   66.5200 N   0  0  0  0  0  0  0  0  0  0  0  0
    1.5170   49.1030   66.7570 C   0  0  0  0  0  2  0  0  0  0  0  0
    0.4850   50.2060   66.4240 C   0  0  0  0  0  2  0  0  0  0  0  0
   -1.0800   52.2530   67.7400 N   0  0  0  0  0  0  0  0  0  0  0  0
   -2.7130   54.5680   69.2430 H   0  0  0  0  0  0  0  0  0  0  0  0
   -1.4070   54.6940   68.1460 H   0  0  0  0  0  0  0  0  0  0  0  0
   -2.9050   49.9680   68.9100 H   0  0  0  0  0  0  0  0  0  0  0  0
    0.8530   47.4000   65.0900 C   0  0  0  0  0  2  0  0  0  0  0  0
    2.0290   47.8410   64.2090 C   0  0  0  0  0  2  0  0  0  0  0  0
    1.5940   48.8530   63.2960 O   0  0  0  0  0  0  0  0  0  0  0  0
    2.5570   49.3210   62.4410 C   0  0  0  0  0  0  0  0  0  0  0  0
    2.4440   50.4500   61.6230 C   0  0  0  0  0  3  0  0  0  0  0  0
    3.5070   50.8420   60.8070 C   0  0  0  0  0  3  0  0  0  0  0  0
    4.6880   50.1040   60.8100 C   0  0  0  0  0  0  0  0  0  0  0  0
    6.1350   50.6540   59.7250 Br  0  0  0  0  0  0  0  0  0  0  0  0
    4.8080   48.9710   61.6070 C   0  0  0  0  0  3  0  0  0  0  0  0
    3.7430   48.5800   62.4200 C   0  0  0  0  0  3  0  0  0  0  0  0
  1 13  1  0  0  0  0
  2  1  1  0  0  0  0
  2  3  2  0  0  0  0
  4 15  1  0  0  0  0
  4  3  1  0  0  0  0
  5  4  1  0  0  0  0
  6  5  1  0  0  0  0
  7  6  1  0  0  0  0
  7  8  1  0  0  0  0
  9 10  1  0  0  0  0
  9  8  1  0  0  0  0
 11 10  1  0  0  0  0
 11  6  1  0  0  0  0
 12  5  2  0  0  0  0
 12  2  1  0  0  0  0
 14  1  1  0  0  0  0
 16  9  1  0  0  0  0
 17 16  1  0  0  0  0
 18 17  1  0  0  0  0
 19 18  1  0  0  0  0
 20 19  2  0  0  0  0
 21 22  2  0  0  0  0
 21 20  1  0  0  0  0
 22 24  1  0  0  0  0
 23 22  1  0  0  0  0
 24 25  2  0  0  0  0
 25 19  1  0  0  0  0
M  END
>  <MODEL>
4

>  <REMARK>
 VINA RESULT:      -7.2      3.602      5.175
  Name = CHEMBL1215473-210
  4 active torsions:
  status: ('A' for Active; 'I' for Inactive)
    1  A    between atoms: N_9  and  C_10
    2  A    between atoms: C_10  and  C_11
    3  A    between atoms: C_11  and  O_12
    4  A    between atoms: O_12  and  C_13
                            x       y       z     vdW  Elec       q    Type
                         _______ _______ _______ _____ _____    ______ ____

>  <TORSDO>
F 4

>  <rfscore_v2>
6.242083801587303

>  <vina_affinity>
-6.741458606199952

>  <vina_gauss1>
80.59241826076823

>  <vina_gauss2>
1092.664666165621

>  <vina_repulsion>
1.729425811151065

>  <vina_hydrophobic>
31.777503457234555

>  <vina_hydrogen>
0.925762846735003

>  <vina_intra_gauss1>
16.706120503197077

>  <vina_intra_gauss2>
123.29956007088333

>  <vina_intra_repulsion>
0.1270772635086919

>  <vina_intra_hydrophobic>
0.0

>  <vina_intra_hydrogen>
0.0

>  <vina_num_rotors>
5.0

>  <rfscore_v3>
6.1821490007933315

>  <PLEClinear_p5_l1_s65536>
6.622956468182974

>  <nnscore>
5.809848931800699

$$$$
CHEMBL1215473-210
 OpenBabel12202021053D

 25 27  0  0  0  0  0  0  0  0999 V2000
   -2.0820   54.0930   68.8140 N   0  0  0  0  0  0  0  0  0  0  0  0
   -1.9920   52.7860   68.5970 C   0  0  0  0  0  0  0  0  0  0  0  0
   -0.8940   52.1410   68.2210 N   0  0  0  0  0  0  0  0  0  0  0  0
   -1.3590   50.8880   68.1130 N   0  0  0  0  0  0  0  0  0  0  0  0
   -2.6860   50.8050   68.4460 C   0  0  0  0  0  0  0  0  0  0  0  0
   -3.4100   49.6640   68.3590 N   0  0  0  0  0  0  0  0  0  0  0  0
   -2.8420   48.3180   68.2810 C   0  0  0  0  0  2  0  0  0  0  0  0
   -3.6240   47.4650   67.2490 C   0  0  0  0  0  2  0  0  0  0  0  0
   -5.0970   47.4490   67.4300 N   0  0  0  0  0  0  0  0  0  0  0  0
   -5.5620   48.8600   67.4940 C   0  0  0  0  0  2  0  0  0  0  0  0
   -4.8600   49.7270   68.5650 C   0  0  0  0  0  2  0  0  0  0  0  0
   -3.0960   52.0120   68.7670 N   0  0  0  0  0  0  0  0  0  0  0  0
   -1.2190   54.6070   68.9260 H   0  0  0  0  0  0  0  0  0  0  0  0
   -2.8620   54.4240   69.3630 H   0  0  0  0  0  0  0  0  0  0  0  0
   -0.7490   50.1630   67.7680 H   0  0  0  0  0  0  0  0  0  0  0  0
   -5.4720   46.6590   68.6200 C   0  0  0  0  0  2  0  0  0  0  0  0
   -5.1990   45.1580   68.4640 C   0  0  0  0  0  2  0  0  0  0  0  0
   -4.1470   44.7660   69.3500 O   0  0  0  0  0  0  0  0  0  0  0  0
   -4.5570   44.2880   70.5680 C   0  0  0  0  0  0  0  0  0  0  0  0
   -3.8890   44.4690   71.7820 C   0  0  0  0  0  3  0  0  0  0  0  0
   -4.4190   43.9510   72.9660 C   0  0  0  0  0  3  0  0  0  0  0  0
   -5.6230   43.2520   72.9340 C   0  0  0  0  0  0  0  0  0  0  0  0
   -6.3520   42.5770   74.5420 Br  0  0  0  0  0  0  0  0  0  0  0  0
   -6.2900   43.0530   71.7310 C   0  0  0  0  0  3  0  0  0  0  0  0
   -5.7560   43.5690   70.5490 C   0  0  0  0  0  3  0  0  0  0  0  0
  1 13  1  0  0  0  0
  1 14  1  0  0  0  0
  2 12  1  0  0  0  0
  2  1  1  0  0  0  0
  3  2  2  0  0  0  0
  4  3  1  0  0  0  0
  4  5  1  0  0  0  0
  5 12  2  0  0  0  0
  6  5  1  0  0  0  0
  6 11  1  0  0  0  0
  7  6  1  0  0  0  0
  8  9  1  0  0  0  0
  8  7  1  0  0  0  0
  9 10  1  0  0  0  0
  9 16  1  0  0  0  0
 10 11  1  0  0  0  0
 15  4  1  0  0  0  0
 17 16  1  0  0  0  0
 17 18  1  0  0  0  0
 18 19  1  0  0  0  0
 19 20  1  0  0  0  0
 20 21  2  0  0  0  0
 22 21  1  0  0  0  0
 22 23  1  0  0  0  0
 24 22  2  0  0  0  0
 25 19  2  0  0  0  0
 25 24  1  0  0  0  0
M  END
>  <MODEL>
5

>  <REMARK>
 VINA RESULT:      -7.2      6.373      9.217
  Name = CHEMBL1215473-210
  4 active torsions:
  status: ('A' for Active; 'I' for Inactive)
    1  A    between atoms: N_9  and  C_10
    2  A    between atoms: C_10  and  C_11
    3  A    between atoms: C_11  and  O_12
    4  A    between atoms: O_12  and  C_13
                            x       y       z     vdW  Elec       q    Type
                         _______ _______ _______ _____ _____    ______ ____

>  <TORSDO>
F 4

>  <rfscore_v2>
6.652208100288599

>  <vina_affinity>
-6.664615371118818

>  <vina_gauss1>
73.64226463877063

>  <vina_gauss2>
1128.1770523035975

>  <vina_repulsion>
0.9635186207662458

>  <vina_hydrophobic>
11.902378352514559

>  <vina_hydrogen>
0.9583293312004405

>  <vina_intra_gauss1>
16.87059289710644

>  <vina_intra_gauss2>
126.9683588870006

>  <vina_intra_repulsion>
0.0862015340687795

>  <vina_intra_hydrophobic>
0.0

>  <vina_intra_hydrogen>
0.0

>  <vina_num_rotors>
5.0

>  <rfscore_v3>
6.847730806210132

>  <PLEClinear_p5_l1_s65536>
5.158427854663506

>  <nnscore>
5.616824249220523

$$$$
CHEMBL1215473-210
 OpenBabel12202021053D

 25 27  0  0  0  0  0  0  0  0999 V2000
   -4.5490   43.5520   70.8130 N   0  0  0  0  0  0  0  0  0  0  0  0
   -3.3620   44.1300   70.6700 C   0  0  0  0  0  0  0  0  0  0  0  0
   -2.2340   43.7250   71.2440 N   0  0  0  0  0  0  0  0  0  0  0  0
   -1.3770   44.6580   70.8050 N   0  0  0  0  0  0  0  0  0  0  0  0
   -1.9860   45.5630   69.9740 C   0  0  0  0  0  0  0  0  0  0  0  0
   -1.3550   46.6400   69.4480 N   0  0  0  0  0  0  0  0  0  0  0  0
    0.0970   46.7950   69.3570 C   0  0  0  0  0  2  0  0  0  0  0  0
    0.5030   48.2470   69.7190 C   0  0  0  0  0  2  0  0  0  0  0  0
   -0.2280   49.3100   68.9850 N   0  0  0  0  0  0  0  0  0  0  0  0
   -1.6840   49.0530   69.1470 C   0  0  0  0  0  2  0  0  0  0  0  0
   -2.1450   47.6390   68.7230 C   0  0  0  0  0  2  0  0  0  0  0  0
   -3.2520   45.2260   69.8740 N   0  0  0  0  0  0  0  0  0  0  0  0
   -4.5690   42.6170   71.1940 H   0  0  0  0  0  0  0  0  0  0  0  0
   -5.2560   43.7590   70.1220 H   0  0  0  0  0  0  0  0  0  0  0  0
   -0.4250   44.6500   71.1390 H   0  0  0  0  0  0  0  0  0  0  0  0
    0.1990   49.3630   67.5720 C   0  0  0  0  0  2  0  0  0  0  0  0
   -0.1750   50.6760   66.8730 C   0  0  0  0  0  2  0  0  0  0  0  0
   -0.8630   50.3920   65.6510 O   0  0  0  0  0  0  0  0  0  0  0  0
   -2.1910   50.0820   65.7870 C   0  0  0  0  0  0  0  0  0  0  0  0
   -2.8020   48.9010   65.3550 C   0  0  0  0  0  3  0  0  0  0  0  0
   -4.1660   48.6900   65.5710 C   0  0  0  0  0  3  0  0  0  0  0  0
   -4.9190   49.6620   66.2230 C   0  0  0  0  0  0  0  0  0  0  0  0
   -6.7580   49.3610   66.5390 Br  0  0  0  0  0  0  0  0  0  0  0  0
   -4.3270   50.8470   66.6440 C   0  0  0  0  0  3  0  0  0  0  0  0
   -2.9650   51.0570   66.4250 C   0  0  0  0  0  3  0  0  0  0  0  0
  1 13  1  0  0  0  0
  2  1  1  0  0  0  0
  2  3  2  0  0  0  0
  4 15  1  0  0  0  0
  4  3  1  0  0  0  0
  5  4  1  0  0  0  0
  6  5  1  0  0  0  0
  7  6  1  0  0  0  0
  7  8  1  0  0  0  0
  9 10  1  0  0  0  0
  9  8  1  0  0  0  0
 11 10  1  0  0  0  0
 11  6  1  0  0  0  0
 12  5  2  0  0  0  0
 12  2  1  0  0  0  0
 14  1  1  0  0  0  0
 16  9  1  0  0  0  0
 17 16  1  0  0  0  0
 18 19  1  0  0  0  0
 18 17  1  0  0  0  0
 19 25  1  0  0  0  0
 20 21  1  0  0  0  0
 20 19  2  0  0  0  0
 21 22  2  0  0  0  0
 22 23  1  0  0  0  0
 22 24  1  0  0  0  0
 25 24  2  0  0  0  0
M  END
>  <MODEL>
6

>  <REMARK>
 VINA RESULT:      -7.1      3.952      4.794
  Name = CHEMBL1215473-210
  4 active torsions:
  status: ('A' for Active; 'I' for Inactive)
    1  A    between atoms: N_9  and  C_10
    2  A    between atoms: C_10  and  C_11
    3  A    between atoms: C_11  and  O_12
    4  A    between atoms: O_12  and  C_13
                            x       y       z     vdW  Elec       q    Type
                         _______ _______ _______ _____ _____    ______ ____

>  <TORSDO>
F 4

>  <rfscore_v2>
6.7745986782106735

>  <vina_affinity>
-6.374131959145538

>  <vina_gauss1>
49.71211139649437

>  <vina_gauss2>
1152.1738387405358

>  <vina_repulsion>
1.4788160219212114

>  <vina_hydrophobic>
7.680323055108529

>  <vina_hydrogen>
2.5489327133879947

>  <vina_intra_gauss1>
34.43531477202855

>  <vina_intra_gauss2>
160.94580738694486

>  <vina_intra_repulsion>
0.24423900453104355

>  <vina_intra_hydrophobic>
0.0

>  <vina_intra_hydrogen>
0.0

>  <vina_num_rotors>
5.0

>  <rfscore_v3>
6.760444566489067

>  <PLEClinear_p5_l1_s65536>
2.9382268285574025

>  <nnscore>
6.147674180405239

$$$$
CHEMBL1215473-210
 OpenBabel12202021053D

 25 27  0  0  0  0  0  0  0  0999 V2000
    3.6010   45.7600   63.2240 N   0  0  0  0  0  0  0  0  0  0  0  0
    2.9880   46.9000   63.5200 C   0  0  0  0  0  0  0  0  0  0  0  0
    3.1940   48.0650   62.9140 N   0  0  0  0  0  0  0  0  0  0  0  0
    2.3710   48.8620   63.6110 N   0  0  0  0  0  0  0  0  0  0  0  0
    1.6850   48.1710   64.5750 C   0  0  0  0  0  0  0  0  0  0  0  0
    0.8380   48.7560   65.4570 N   0  0  0  0  0  0  0  0  0  0  0  0
    0.2400   50.0800   65.2870 C   0  0  0  0  0  2  0  0  0  0  0  0
    0.2470   50.8470   66.6340 C   0  0  0  0  0  2  0  0  0  0  0  0
   -0.3280   50.1080   67.7860 N   0  0  0  0  0  0  0  0  0  0  0  0
    0.3500   48.7870   67.8620 C   0  0  0  0  0  2  0  0  0  0  0  0
    0.2990   47.9540   66.5590 C   0  0  0  0  0  2  0  0  0  0  0  0
    2.0650   46.9140   64.5170 N   0  0  0  0  0  0  0  0  0  0  0  0
    4.0860   45.7070   62.3400 H   0  0  0  0  0  0  0  0  0  0  0  0
    3.1700   44.9020   63.5380 H   0  0  0  0  0  0  0  0  0  0  0  0
    2.3600   49.8510   63.4160 H   0  0  0  0  0  0  0  0  0  0  0  0
   -1.7960   50.0010   67.6610 C   0  0  0  0  0  2  0  0  0  0  0  0
   -2.4870   49.5820   68.9640 C   0  0  0  0  0  2  0  0  0  0  0  0
   -2.8390   48.1960   68.8990 O   0  0  0  0  0  0  0  0  0  0  0  0
   -3.9720   47.9140   68.1830 C   0  0  0  0  0  0  0  0  0  0  0  0
   -4.1150   46.8790   67.2530 C   0  0  0  0  0  3  0  0  0  0  0  0
   -5.3330   46.6760   66.6000 C   0  0  0  0  0  3  0  0  0  0  0  0
   -6.4120   47.5110   66.8790 C   0  0  0  0  0  0  0  0  0  0  0  0
   -8.0660   47.2170   66.0140 Br  0  0  0  0  0  0  0  0  0  0  0  0
   -6.2790   48.5530   67.7900 C   0  0  0  0  0  3  0  0  0  0  0  0
   -5.0610   48.7550   68.4390 C   0  0  0  0  0  3  0  0  0  0  0  0
  1  2  1  0  0  0  0
  1 14  1  0  0  0  0
  2 12  1  0  0  0  0
  3  2  2  0  0  0  0
  3  4  1  0  0  0  0
  4  5  1  0  0  0  0
  5  6  1  0  0  0  0
  6 11  1  0  0  0  0
  7  6  1  0  0  0  0
  7  8  1  0  0  0  0
  8  9  1  0  0  0  0
  9 10  1  0  0  0  0
 11 10  1  0  0  0  0
 12  5  2  0  0  0  0
 13  1  1  0  0  0  0
 15  4  1  0  0  0  0
 16  9  1  0  0  0  0
 16 17  1  0  0  0  0
 18 17  1  0  0  0  0
 19 25  1  0  0  0  0
 19 18  1  0  0  0  0
 20 19  2  0  0  0  0
 21 22  2  0  0  0  0
 21 20  1  0  0  0  0
 22 24  1  0  0  0  0
 23 22  1  0  0  0  0
 24 25  2  0  0  0  0
M  END
>  <MODEL>
7

>  <REMARK>
 VINA RESULT:      -7.1      4.705      7.825
  Name = CHEMBL1215473-210
  4 active torsions:
  status: ('A' for Active; 'I' for Inactive)
    1  A    between atoms: N_9  and  C_10
    2  A    between atoms: C_10  and  C_11
    3  A    between atoms: C_11  and  O_12
    4  A    between atoms: O_12  and  C_13
                            x       y       z     vdW  Elec       q    Type
                         _______ _______ _______ _____ _____    ______ ____

>  <TORSDO>
F 4

>  <rfscore_v2>
6.361065321955823

>  <vina_affinity>
-6.658365020874621

>  <vina_gauss1>
76.04916861139736

>  <vina_gauss2>
1016.5723985631738

>  <vina_repulsion>
0.8066622754489747

>  <vina_hydrophobic>
13.787605225092019

>  <vina_hydrogen>
1.4424602696850641

>  <vina_intra_gauss1>
18.00113619409194

>  <vina_intra_gauss2>
134.37023246945932

>  <vina_intra_repulsion>
0.1769980939709514

>  <vina_intra_hydrophobic>
0.0

>  <vina_intra_hydrogen>
0.0

>  <vina_num_rotors>
5.0

>  <rfscore_v3>
6.396173624225445

>  <PLEClinear_p5_l1_s65536>
3.0170790137746537

>  <nnscore>
5.603875973968683

$$$$
CHEMBL1215473-210
 OpenBabel12202021053D

 25 27  0  0  0  0  0  0  0  0999 V2000
    2.3360   52.4680   60.0560 N   0  0  0  0  0  0  0  0  0  0  0  0
    2.3610   51.5110   60.9760 C   0  0  0  0  0  0  0  0  0  0  0  0
    3.2780   50.5540   61.0680 N   0  0  0  0  0  0  0  0  0  0  0  0
    2.8160   49.8590   62.1170 N   0  0  0  0  0  0  0  0  0  0  0  0
    1.6760   50.4150   62.6380 C   0  0  0  0  0  0  0  0  0  0  0  0
    0.9760   49.8690   63.6610 N   0  0  0  0  0  0  0  0  0  0  0  0
    1.5000   48.8700   64.5920 C   0  0  0  0  0  2  0  0  0  0  0  0
    0.4270   47.7860   64.8730 C   0  0  0  0  0  2  0  0  0  0  0  0
   -0.9010   48.3030   65.2840 N   0  0  0  0  0  0  0  0  0  0  0  0
   -1.3330   49.3030   64.2720 C   0  0  0  0  0  2  0  0  0  0  0  0
   -0.3230   50.4470   64.0180 C   0  0  0  0  0  2  0  0  0  0  0  0
    1.3850   51.4780   61.9220 N   0  0  0  0  0  0  0  0  0  0  0  0
    3.1810   52.6280   59.5270 H   0  0  0  0  0  0  0  0  0  0  0  0
    1.7790   53.2880   60.2500 H   0  0  0  0  0  0  0  0  0  0  0  0
    3.2840   49.0080   62.3900 H   0  0  0  0  0  0  0  0  0  0  0  0
   -0.8510   48.8500   66.6560 C   0  0  0  0  0  2  0  0  0  0  0  0
   -1.3890   47.8800   67.7160 C   0  0  0  0  0  2  0  0  0  0  0  0
   -1.1050   48.3900   69.0220 O   0  0  0  0  0  0  0  0  0  0  0  0
    0.0570   47.9350   69.5880 C   0  0  0  0  0  0  0  0  0  0  0  0
    1.1170   47.3330   68.9030 C   0  0  0  0  0  3  0  0  0  0  0  0
    2.2650   46.9300   69.5890 C   0  0  0  0  0  3  0  0  0  0  0  0
    2.3530   47.1310   70.9630 C   0  0  0  0  0  0  0  0  0  0  0  0
    3.9200   46.6080   71.8840 Br  0  0  0  0  0  0  0  0  0  0  0  0
    1.3000   47.7140   71.6580 C   0  0  0  0  0  3  0  0  0  0  0  0
    0.1540   48.1150   70.9710 C   0  0  0  0  0  3  0  0  0  0  0  0
  1 14  1  0  0  0  0
  1  2  1  0  0  0  0
  2  3  2  0  0  0  0
  2 12  1  0  0  0  0
  3  4  1  0  0  0  0
  4 15  1  0  0  0  0
  4  5  1  0  0  0  0
  5  6  1  0  0  0  0
  6 11  1  0  0  0  0
  6  7  1  0  0  0  0
  7  8  1  0  0  0  0
  8  9  1  0  0  0  0
  9 16  1  0  0  0  0
 10  9  1  0  0  0  0
 11 10  1  0  0  0  0
 12  5  2  0  0  0  0
 13  1  1  0  0  0  0
 16 17  1  0  0  0  0
 17 18  1  0  0  0  0
 18 19  1  0  0  0  0
 19 25  1  0  0  0  0
 20 19  2  0  0  0  0
 20 21  1  0  0  0  0
 21 22  2  0  0  0  0
 22 24  1  0  0  0  0
 22 23  1  0  0  0  0
 25 24  2  0  0  0  0
M  END
>  <MODEL>
8

>  <REMARK>
 VINA RESULT:      -6.8      4.649      8.352
  Name = CHEMBL1215473-210
  4 active torsions:
  status: ('A' for Active; 'I' for Inactive)
    1  A    between atoms: N_9  and  C_10
    2  A    between atoms: C_10  and  C_11
    3  A    between atoms: C_11  and  O_12
    4  A    between atoms: O_12  and  C_13
                            x       y       z     vdW  Elec       q    Type
                         _______ _______ _______ _____ _____    ______ ____

>  <TORSDO>
F 4

>  <rfscore_v2>
6.610175626096126

>  <vina_affinity>
-6.667379434619514

>  <vina_gauss1>
86.40700991540068

>  <vina_gauss2>
1004.9769662362277

>  <vina_repulsion>
1.1638327795104881

>  <vina_hydrophobic>
37.98965114721744

>  <vina_hydrogen>
0.0

>  <vina_intra_gauss1>
12.20162678327408

>  <vina_intra_gauss2>
120.10380062979777

>  <vina_intra_repulsion>
0.40914770952128865

>  <vina_intra_hydrophobic>
0.0

>  <vina_intra_hydrogen>
0.0

>  <vina_num_rotors>
5.0

>  <rfscore_v3>
6.335604317587642

>  <PLEClinear_p5_l1_s65536>
4.261721152350532

>  <nnscore>
5.493643313782032

$$$$
CHEMBL1215473-210
 OpenBabel12202021053D

 25 27  0  0  0  0  0  0  0  0999 V2000
    5.0570   48.3280   61.2040 N   0  0  0  0  0  0  0  0  0  0  0  0
    3.9930   48.8660   61.7890 C   0  0  0  0  0  0  0  0  0  0  0  0
    3.5280   50.0910   61.5650 N   0  0  0  0  0  0  0  0  0  0  0  0
    2.4950   50.1300   62.4200 N   0  0  0  0  0  0  0  0  0  0  0  0
    2.3480   48.9500   63.1000 C   0  0  0  0  0  0  0  0  0  0  0  0
    1.4200   48.7530   64.0670 N   0  0  0  0  0  0  0  0  0  0  0  0
    0.2290   49.5790   64.2620 C   0  0  0  0  0  2  0  0  0  0  0  0
   -0.0050   49.8310   65.7740 C   0  0  0  0  0  2  0  0  0  0  0  0
   -0.0130   48.6150   66.6240 N   0  0  0  0  0  0  0  0  0  0  0  0
    1.2350   47.8580   66.3450 C   0  0  0  0  0  2  0  0  0  0  0  0
    1.4690   47.5170   64.8540 C   0  0  0  0  0  2  0  0  0  0  0  0
    3.2950   48.1330   62.6950 N   0  0  0  0  0  0  0  0  0  0  0  0
    5.4080   48.7780   60.3720 H   0  0  0  0  0  0  0  0  0  0  0  0
    5.1440   47.3220   61.2290 H   0  0  0  0  0  0  0  0  0  0  0  0
    1.9740   50.9880   62.5240 H   0  0  0  0  0  0  0  0  0  0  0  0
   -1.2370   47.8210   66.3940 C   0  0  0  0  0  2  0  0  0  0  0  0
   -2.2230   47.8700   67.5680 C   0  0  0  0  0  2  0  0  0  0  0  0
   -3.5290   47.5000   67.1160 O   0  0  0  0  0  0  0  0  0  0  0  0
   -4.1460   46.5220   67.8510 C   0  0  0  0  0  0  0  0  0  0  0  0
   -5.4500   46.0540   67.6560 C   0  0  0  0  0  3  0  0  0  0  0  0
   -5.9620   45.0320   68.4590 C   0  0  0  0  0  3  0  0  0  0  0  0
   -5.1670   44.4750   69.4570 C   0  0  0  0  0  0  0  0  0  0  0  0
   -5.8550   43.0730   70.5220 Br  0  0  0  0  0  0  0  0  0  0  0  0
   -3.8750   44.9410   69.6700 C   0  0  0  0  0  3  0  0  0  0  0  0
   -3.3660   45.9640   68.8690 C   0  0  0  0  0  3  0  0  0  0  0  0
  1 14  1  0  0  0  0
  1  2  1  0  0  0  0
  2 12  1  0  0  0  0
  3  2  2  0  0  0  0
  3  4  1  0  0  0  0
  4 15  1  0  0  0  0
  4  5  1  0  0  0  0
  5  6  1  0  0  0  0
  6  7  1  0  0  0  0
  6 11  1  0  0  0  0
  7  8  1  0  0  0  0
  8  9  1  0  0  0  0
 10  9  1  0  0  0  0
 11 10  1  0  0  0  0
 12  5  2  0  0  0  0
 13  1  1  0  0  0  0
 16  9  1  0  0  0  0
 16 17  1  0  0  0  0
 18 17  1  0  0  0  0
 18 19  1  0  0  0  0
 19 25  1  0  0  0  0
 20 19  2  0  0  0  0
 20 21  1  0  0  0  0
 21 22  2  0  0  0  0
 22 24  1  0  0  0  0
 22 23  1  0  0  0  0
 25 24  2  0  0  0  0
M  END
>  <MODEL>
9

>  <REMARK>
 VINA RESULT:      -6.8      4.956      8.906
  Name = CHEMBL1215473-210
  4 active torsions:
  status: ('A' for Active; 'I' for Inactive)
    1  A    between atoms: N_9  and  C_10
    2  A    between atoms: C_10  and  C_11
    3  A    between atoms: C_11  and  O_12
    4  A    between atoms: O_12  and  C_13
                            x       y       z     vdW  Elec       q    Type
                         _______ _______ _______ _____ _____    ______ ____

>  <TORSDO>
F 4

>  <rfscore_v2>
6.026664039960041

>  <vina_affinity>
-6.581859043981778

>  <vina_gauss1>
76.6431335320926

>  <vina_gauss2>
1004.0403218138485

>  <vina_repulsion>
0.4498632922397601

>  <vina_hydrophobic>
27.79471126854393

>  <vina_hydrogen>
0.0

>  <vina_intra_gauss1>
11.26628968136727

>  <vina_intra_gauss2>
104.56647275094667

>  <vina_intra_repulsion>
0.008340327559787293

>  <vina_intra_hydrophobic>
0.0

>  <vina_intra_hydrogen>
0.0

>  <vina_num_rotors>
5.0

>  <rfscore_v3>
5.762404842562672

>  <PLEClinear_p5_l1_s65536>
3.6110594283997046

>  <nnscore>
5.410836218741283

$$$$
