CHEMBL197199-4500
 OpenBabel12202021073D

 58 59  0  0  1  0  0  0  0  0999 V2000
   -0.1920   49.9510   65.4340 C   0  0  2  0  0  3  0  0  0  0  0  0
   -1.1370   50.2770   66.5330 N   0  0  0  0  0  0  0  0  0  0  0  0
   -1.6470   49.4270   67.4820 C   0  0  0  0  0  0  0  0  0  0  0  0
   -1.0880   48.3760   67.7950 O   0  0  0  0  0  0  0  0  0  0  0  0
   -3.1250   49.6990   67.8860 C   0  0  1  0  0  3  0  0  0  0  0  0
   -3.6300   51.1010   67.5400 C   0  0  0  0  0  1  0  0  0  0  0  0
   -3.8970   48.6940   67.1360 N   0  0  0  0  0  0  0  0  0  0  0  0
   -5.2640   48.5980   67.2230 C   0  0  0  0  0  0  0  0  0  0  0  0
   -5.9350   49.1440   68.0880 O   0  0  0  0  0  0  0  0  0  0  0  0
   -5.8950   47.8120   66.0960 C   0  0  0  0  0  2  0  0  0  0  0  0
   -6.7980   48.6620   65.1930 C   0  0  2  0  0  3  0  0  0  0  0  0
   -6.0130   49.3940   64.1840 N   0  0  0  0  0  0  0  0  0  0  0  0
   -6.5340   49.6340   62.9280 C   0  0  0  0  0  0  0  0  0  0  0  0
   -7.6700   49.2990   62.5890 O   0  0  0  0  0  0  0  0  0  0  0  0
   -5.5320   50.1520   61.9060 C   0  0  0  0  0  2  0  0  0  0  0  0
   -4.1490   49.5500   62.1500 C   0  0  2  0  0  3  0  0  0  0  0  0
   -3.1690   49.9360   61.1230 N   0  0  0  0  0  0  0  0  0  0  0  0
   -1.9780   50.6140   61.1670 C   0  0  0  0  0  0  0  0  0  0  0  0
   -1.2260   50.4740   60.1940 O   0  0  0  0  0  0  0  0  0  0  0  0
   -1.5640   51.5360   62.3610 C   0  0  1  0  0  3  0  0  0  0  0  0
   -0.4300   50.9570   63.1320 N   0  0  0  0  0  0  0  0  0  0  0  0
    0.9060   50.9940   62.5410 C   0  0  0  0  0  1  0  0  0  0  0  0
   -0.4870   51.1690   64.5000 C   0  0  0  0  0  0  0  0  0  0  0  0
   -0.8860   52.2430   64.9680 O   0  0  0  0  0  0  0  0  0  0  0  0
   -1.4330   51.2520   66.5490 H   0  0  0  0  0  0  0  0  0  0  0  0
   -3.3990   47.8330   66.9240 H   0  0  0  0  0  0  0  0  0  0  0  0
   -5.3820   50.0910   64.5620 H   0  0  0  0  0  0  0  0  0  0  0  0
   -3.2160   49.4160   60.2510 H   0  0  0  0  0  0  0  0  0  0  0  0
   -7.6600   49.7090   65.9110 C   0  0  0  0  0  0  0  0  0  0  0  0
   -7.5060   50.9170   65.7660 O   0  0  0  0  0  0  0  0  0  0  0  0
   -8.6340   49.1830   66.6830 O   0  0  0  0  0  0  0  0  0  0  0  0
   -9.5360   49.4950   66.4810 H   0  0  0  0  0  0  0  0  0  0  0  0
   -4.2010   48.0090   62.3090 C   0  0  0  0  0  0  0  0  0  0  0  0
   -4.7020   47.3120   61.4340 O   0  0  0  0  0  0  0  0  0  0  0  0
   -3.7370   47.4360   63.4380 O   0  0  0  0  0  0  0  0  0  0  0  0
   -3.0970   46.6970   63.4170 H   0  0  0  0  0  0  0  0  0  0  0  0
   -0.5470   48.5830   64.8180 C   0  0  0  0  0  2  0  0  0  0  0  0
    0.4940   47.4600   64.8140 C   0  0  0  0  0  2  0  0  0  0  0  0
    1.9450   47.8970   64.5670 C   0  0  0  0  0  2  0  0  0  0  0  0
    5.4530   49.0160   59.1670 C   0  0  0  0  0  1  0  0  0  0  0  0
    4.5900   48.9130   60.3220 N   0  0  0  0  0  0  0  0  0  0  0  0
    4.5050   47.7010   60.9700 C   0  0  0  0  0  0  0  0  0  0  0  0
    5.1410   46.7160   60.6100 O   0  0  0  0  0  0  0  0  0  0  0  0
    3.6620   47.7230   62.0620 N   0  0  0  0  0  0  0  0  0  0  0  0
    3.4560   46.6740   62.9210 C   0  0  0  0  0  0  0  0  0  0  0  0
    4.0050   45.5210   62.7370 N   0  0  0  0  0  0  0  0  0  0  0  0
    2.6740   46.7850   64.0170 N   0  0  0  0  0  0  0  0  0  0  0  0
    3.7890   49.5240   60.3570 H   0  0  0  0  0  0  0  0  0  0  0  0
    3.2650   48.6070   62.3210 H   0  0  0  0  0  0  0  0  0  0  0  0
    4.5850   45.5630   61.8810 H   0  0  0  0  0  0  0  0  0  0  0  0
    2.7330   45.9390   64.5830 H   0  0  0  0  0  0  0  0  0  0  0  0
   -1.2720   52.9720   61.8470 C   0  0  0  0  0  2  0  0  0  0  0  0
   -2.3570   53.4530   60.9110 C   0  0  0  0  0  0  0  0  0  0  0  0
   -3.7050   53.3290   61.2750 C   0  0  0  0  0  3  0  0  0  0  0  0
   -4.7110   53.5840   60.3450 C   0  0  0  0  0  3  0  0  0  0  0  0
   -4.3810   54.0130   59.0620 C   0  0  0  0  0  3  0  0  0  0  0  0
   -3.0470   54.2260   58.7200 C   0  0  0  0  0  3  0  0  0  0  0  0
   -2.0360   53.9480   59.6410 C   0  0  0  0  0  3  0  0  0  0  0  0
  1 37  1  6  0  0  0
  1  2  1  0  0  0  0
  2 25  1  0  0  0  0
  2  3  1  0  0  0  0
  3  4  2  0  0  0  0
  3  5  1  0  0  0  0
  5  6  1  6  0  0  0
  7  8  1  0  0  0  0
  7  5  1  0  0  0  0
  8  9  2  0  0  0  0
 10  8  1  0  0  0  0
 11 29  1  1  0  0  0
 11 10  1  0  0  0  0
 12 27  1  0  0  0  0
 12 11  1  0  0  0  0
 13 12  1  0  0  0  0
 14 13  2  0  0  0  0
 15 16  1  0  0  0  0
 15 13  1  0  0  0  0
 16 33  1  6  0  0  0
 17 18  1  0  0  0  0
 17 16  1  0  0  0  0
 18 20  1  0  0  0  0
 19 18  2  0  0  0  0
 20 52  1  6  0  0  0
 20 21  1  0  0  0  0
 21 23  1  0  0  0  0
 22 21  1  0  0  0  0
 23 24  2  0  0  0  0
 23  1  1  0  0  0  0
 26  7  1  0  0  0  0
 28 17  1  0  0  0  0
 29 31  1  0  0  0  0
 30 29  2  0  0  0  0
 32 31  1  0  0  0  0
 33 35  1  0  0  0  0
 34 33  2  0  0  0  0
 36 35  1  0  0  0  0
 38 37  1  0  0  0  0
 39 38  1  0  0  0  0
 40 41  1  0  0  0  0
 41 48  1  0  0  0  0
 41 42  1  0  0  0  0
 42 44  1  0  0  0  0
 43 42  2  0  0  0  0
 44 49  1  0  0  0  0
 44 45  1  0  0  0  0
 45 47  1  0  0  0  0
 46 45  2  0  0  0  0
 47 39  1  0  0  0  0
 47 51  1  0  0  0  0
 50 46  1  0  0  0  0
 53 54  1  0  0  0  0
 53 52  1  0  0  0  0
 55 54  2  0  0  0  0
 56 55  1  0  0  0  0
 57 56  2  0  0  0  0
 57 58  1  0  0  0  0
 58 53  2  0  0  0  0
M  END
>  <MODEL>
1

>  <REMARK>
 VINA RESULT:      -8.1      0.000      0.000
  Name = CHEMBL197199-4500
  13 active torsions:
  status: ('A' for Active; 'I' for Inactive)
    1  A    between atoms: C_1  and  N_2
    2  A    between atoms: N_8  and  C_9
    3  A    between atoms: C_9  and  C_10
    4  A    between atoms: C_10  and  C_11
    5  A    between atoms: C_11  and  C_12
    6  A    between atoms: C_16  and  C_17
    7  A    between atoms: C_22  and  C_23
    8  A    between atoms: C_23  and  O_25
    9  A    between atoms: CA_30  and  C_31
   10  A    between atoms: C_31  and  OXT_33
   11  A    between atoms: CA_37  and  CB_38
   12  A    between atoms: CB_38  and  CG_39
   13  A    between atoms: N_45  and  C_46
                            x       y       z     vdW  Elec       q    Type
                         _______ _______ _______ _____ _____    ______ ____

>  <TORSDO>
F 10

>  <rfscore_v2>
6.457130761904759

>  <vina_affinity>
-7.115558475949956

>  <vina_gauss1>
93.19698971817292

>  <vina_gauss2>
1768.6910684454701

>  <vina_repulsion>
2.6143376726188214

>  <vina_hydrophobic>
17.387171325456606

>  <vina_hydrogen>
2.1331783822785804

>  <vina_intra_gauss1>
99.79388406197549

>  <vina_intra_gauss2>
844.0508938162166

>  <vina_intra_repulsion>
7.766454193041469

>  <vina_intra_hydrophobic>
12.270740276777572

>  <vina_intra_hydrogen>
4.1809620746477005

>  <vina_num_rotors>
12.0

>  <rfscore_v3>
6.40640107126208

>  <PLEClinear_p5_l1_s65536>
4.071989515287297

>  <nnscore>
5.89340854122012

$$$$
CHEMBL197199-4500
 OpenBabel12202021073D

 58 59  0  0  1  0  0  0  0  0999 V2000
   -1.8650   52.2590   59.4040 C   0  0  2  0  0  3  0  0  0  0  0  0
   -2.4440   50.9830   58.9100 N   0  0  0  0  0  0  0  0  0  0  0  0
   -3.7260   50.7540   58.4790 C   0  0  0  0  0  0  0  0  0  0  0  0
   -4.4560   51.6560   58.0660 O   0  0  0  0  0  0  0  0  0  0  0  0
   -4.3110   49.3610   58.8550 C   0  0  1  0  0  3  0  0  0  0  0  0
   -3.2620   48.3100   59.2220 C   0  0  0  0  0  1  0  0  0  0  0  0
   -5.1700   49.6310   60.0210 N   0  0  0  0  0  0  0  0  0  0  0  0
   -5.8810   48.6450   60.6580 C   0  0  0  0  0  0  0  0  0  0  0  0
   -6.0700   47.5280   60.1950 O   0  0  0  0  0  0  0  0  0  0  0  0
   -6.3530   49.0280   62.0420 C   0  0  0  0  0  2  0  0  0  0  0  0
   -5.7080   48.1970   63.1580 C   0  0  2  0  0  3  0  0  0  0  0  0
   -4.3770   48.7180   63.5160 N   0  0  0  0  0  0  0  0  0  0  0  0
   -3.9210   48.6430   64.8170 C   0  0  0  0  0  0  0  0  0  0  0  0
   -4.5570   48.1150   65.7300 O   0  0  0  0  0  0  0  0  0  0  0  0
   -2.6630   49.4520   65.1030 C   0  0  0  0  0  2  0  0  0  0  0  0
   -2.6410   50.7320   64.2690 C   0  0  2  0  0  3  0  0  0  0  0  0
   -1.4980   51.6010   64.5880 N   0  0  0  0  0  0  0  0  0  0  0  0
   -0.4450   52.0790   63.8520 C   0  0  0  0  0  0  0  0  0  0  0  0
    0.1500   53.0620   64.3120 O   0  0  0  0  0  0  0  0  0  0  0  0
    0.0170   51.4340   62.5040 C   0  0  1  0  0  3  0  0  0  0  0  0
   -0.2560   52.3280   61.3460 N   0  0  0  0  0  0  0  0  0  0  0  0
    0.5890   53.5060   61.1600 C   0  0  0  0  0  1  0  0  0  0  0  0
   -0.6440   51.6780   60.1850 C   0  0  0  0  0  0  0  0  0  0  0  0
   -0.1310   50.6030   59.8500 O   0  0  0  0  0  0  0  0  0  0  0  0
   -1.7910   50.2010   58.9190 H   0  0  0  0  0  0  0  0  0  0  0  0
   -5.5670   50.5680   60.0600 H   0  0  0  0  0  0  0  0  0  0  0  0
   -3.6840   48.6520   62.7800 H   0  0  0  0  0  0  0  0  0  0  0  0
   -1.6000   52.1740   65.4210 H   0  0  0  0  0  0  0  0  0  0  0  0
   -5.5170   46.7050   62.8500 C   0  0  0  0  0  0  0  0  0  0  0  0
   -6.3610   45.8540   63.1080 O   0  0  0  0  0  0  0  0  0  0  0  0
   -4.3550   46.4180   62.2250 O   0  0  0  0  0  0  0  0  0  0  0  0
   -3.5540   46.5400   62.7670 H   0  0  0  0  0  0  0  0  0  0  0  0
   -3.9740   51.5170   64.3650 C   0  0  0  0  0  0  0  0  0  0  0  0
   -4.6210   51.7650   63.3530 O   0  0  0  0  0  0  0  0  0  0  0  0
   -4.3980   51.9750   65.5600 O   0  0  0  0  0  0  0  0  0  0  0  0
   -5.2740   52.3950   65.6710 H   0  0  0  0  0  0  0  0  0  0  0  0
   -2.8890   52.9980   60.2890 C   0  0  0  0  0  2  0  0  0  0  0  0
   -2.8780   54.5280   60.3480 C   0  0  0  0  0  2  0  0  0  0  0  0
   -2.2880   55.2370   59.1210 C   0  0  0  0  0  2  0  0  0  0  0  0
    3.1500   57.2250   56.0880 C   0  0  0  0  0  1  0  0  0  0  0  0
    1.9850   56.6270   56.7000 N   0  0  0  0  0  0  0  0  0  0  0  0
    1.3410   57.3210   57.6990 C   0  0  0  0  0  0  0  0  0  0  0  0
    1.7120   58.4280   58.0780 O   0  0  0  0  0  0  0  0  0  0  0  0
    0.2380   56.6600   58.2010 N   0  0  0  0  0  0  0  0  0  0  0  0
   -0.6190   57.1610   59.1470 C   0  0  0  0  0  0  0  0  0  0  0  0
   -0.4240   58.3060   59.7110 N   0  0  0  0  0  0  0  0  0  0  0  0
   -1.7250   56.4930   59.5420 N   0  0  0  0  0  0  0  0  0  0  0  0
    1.9370   55.6200   56.7190 H   0  0  0  0  0  0  0  0  0  0  0  0
   -0.0300   55.8030   57.7540 H   0  0  0  0  0  0  0  0  0  0  0  0
    0.4390   58.7240   59.3210 H   0  0  0  0  0  0  0  0  0  0  0  0
   -2.2870   57.0710   60.1650 H   0  0  0  0  0  0  0  0  0  0  0  0
    1.5090   51.0120   62.6000 C   0  0  0  0  0  2  0  0  0  0  0  0
    1.6500   49.6150   63.1600 C   0  0  0  0  0  0  0  0  0  0  0  0
    0.8110   49.1850   64.1980 C   0  0  0  0  0  3  0  0  0  0  0  0
    1.0600   47.9800   64.8510 C   0  0  0  0  0  3  0  0  0  0  0  0
    2.1170   47.1710   64.4400 C   0  0  0  0  0  3  0  0  0  0  0  0
    2.9000   47.5470   63.3500 C   0  0  0  0  0  3  0  0  0  0  0  0
    2.6680   48.7650   62.7090 C   0  0  0  0  0  3  0  0  0  0  0  0
  1 23  1  0  0  0  0
  1 37  1  1  0  0  0
  2 25  1  0  0  0  0
  2  1  1  0  0  0  0
  3  5  1  0  0  0  0
  3  2  1  0  0  0  0
  4  3  2  0  0  0  0
  5  6  1  1  0  0  0
  5  7  1  0  0  0  0
  7 26  1  0  0  0  0
  7  8  1  0  0  0  0
  8 10  1  0  0  0  0
  9  8  2  0  0  0  0
 10 11  1  0  0  0  0
 11 29  1  6  0  0  0
 11 12  1  0  0  0  0
 12 13  1  0  0  0  0
 13 15  1  0  0  0  0
 13 14  2  0  0  0  0
 16 33  1  1  0  0  0
 16 17  1  0  0  0  0
 16 15  1  0  0  0  0
 17 28  1  0  0  0  0
 18 19  2  0  0  0  0
 18 17  1  0  0  0  0
 20 52  1  1  0  0  0
 20 18  1  0  0  0  0
 21 20  1  0  0  0  0
 22 21  1  0  0  0  0
 23 21  1  0  0  0  0
 24 23  2  0  0  0  0
 27 12  1  0  0  0  0
 29 30  2  0  0  0  0
 31 32  1  0  0  0  0
 31 29  1  0  0  0  0
 33 35  1  0  0  0  0
 34 33  2  0  0  0  0
 35 36  1  0  0  0  0
 37 38  1  0  0  0  0
 39 47  1  0  0  0  0
 39 38  1  0  0  0  0
 40 41  1  0  0  0  0
 41 48  1  0  0  0  0
 41 42  1  0  0  0  0
 42 43  2  0  0  0  0
 42 44  1  0  0  0  0
 44 45  1  0  0  0  0
 45 47  1  0  0  0  0
 45 46  2  0  0  0  0
 47 51  1  0  0  0  0
 49 44  1  0  0  0  0
 50 46  1  0  0  0  0
 52 53  1  0  0  0  0
 53 54  1  0  0  0  0
 54 55  2  0  0  0  0
 56 55  1  0  0  0  0
 57 56  2  0  0  0  0
 58 53  2  0  0  0  0
 58 57  1  0  0  0  0
M  END
>  <MODEL>
2

>  <REMARK>
 VINA RESULT:      -8.0      3.539      7.491
  Name = CHEMBL197199-4500
  13 active torsions:
  status: ('A' for Active; 'I' for Inactive)
    1  A    between atoms: C_1  and  N_2
    2  A    between atoms: N_8  and  C_9
    3  A    between atoms: C_9  and  C_10
    4  A    between atoms: C_10  and  C_11
    5  A    between atoms: C_11  and  C_12
    6  A    between atoms: C_16  and  C_17
    7  A    between atoms: C_22  and  C_23
    8  A    between atoms: C_23  and  O_25
    9  A    between atoms: CA_30  and  C_31
   10  A    between atoms: C_31  and  OXT_33
   11  A    between atoms: CA_37  and  CB_38
   12  A    between atoms: CB_38  and  CG_39
   13  A    between atoms: N_45  and  C_46
                            x       y       z     vdW  Elec       q    Type
                         _______ _______ _______ _____ _____    ______ ____

>  <TORSDO>
F 10

>  <rfscore_v2>
6.756144277777774

>  <vina_affinity>
-6.91152495839989

>  <vina_gauss1>
90.64854144490508

>  <vina_gauss2>
1392.8422273946999

>  <vina_repulsion>
3.493029884901119

>  <vina_hydrophobic>
39.686832553871355

>  <vina_hydrogen>
4.924018383436792

>  <vina_intra_gauss1>
94.93634934645044

>  <vina_intra_gauss2>
862.8076500863372

>  <vina_intra_repulsion>
8.22623284216282

>  <vina_intra_hydrophobic>
11.439901088815912

>  <vina_intra_hydrogen>
4.739809622426332

>  <vina_num_rotors>
12.0

>  <rfscore_v3>
6.608102708513708

>  <PLEClinear_p5_l1_s65536>
2.9681267970127134

>  <nnscore>
4.901348992955053

$$$$
CHEMBL197199-4500
 OpenBabel12202021073D

 58 59  0  0  1  0  0  0  0  0999 V2000
   -1.3430   51.7990   58.7320 C   0  0  2  0  0  3  0  0  0  0  0  0
   -1.8850   50.4660   58.3610 N   0  0  0  0  0  0  0  0  0  0  0  0
   -3.1110   50.1810   57.8160 C   0  0  0  0  0  0  0  0  0  0  0  0
   -3.7690   51.0160   57.1940 O   0  0  0  0  0  0  0  0  0  0  0  0
   -3.7640   48.8590   58.3150 C   0  0  1  0  0  3  0  0  0  0  0  0
   -2.7870   47.8690   58.9520 C   0  0  0  0  0  1  0  0  0  0  0  0
   -4.7490   49.2970   59.3190 N   0  0  0  0  0  0  0  0  0  0  0  0
   -5.5500   48.4150   60.0020 C   0  0  0  0  0  0  0  0  0  0  0  0
   -5.7050   47.2440   59.6840 O   0  0  0  0  0  0  0  0  0  0  0  0
   -6.1740   48.9960   61.2500 C   0  0  0  0  0  2  0  0  0  0  0  0
   -5.6820   48.3330   62.5420 C   0  0  2  0  0  3  0  0  0  0  0  0
   -4.3930   48.8970   62.9780 N   0  0  0  0  0  0  0  0  0  0  0  0
   -4.0950   49.0090   64.3220 C   0  0  0  0  0  0  0  0  0  0  0  0
   -4.8450   48.6200   65.2190 O   0  0  0  0  0  0  0  0  0  0  0  0
   -2.8640   49.8480   64.6380 C   0  0  0  0  0  2  0  0  0  0  0  0
   -2.7170   50.9930   63.6380 C   0  0  2  0  0  3  0  0  0  0  0  0
   -1.6030   51.8970   63.9640 N   0  0  0  0  0  0  0  0  0  0  0  0
   -0.4620   52.2600   63.2980 C   0  0  0  0  0  0  0  0  0  0  0  0
    0.0950   53.2970   63.6800 O   0  0  0  0  0  0  0  0  0  0  0  0
    0.1440   51.4260   62.1220 C   0  0  1  0  0  3  0  0  0  0  0  0
    0.0270   52.1440   60.8230 N   0  0  0  0  0  0  0  0  0  0  0  0
    0.9120   53.2790   60.5730 C   0  0  0  0  0  1  0  0  0  0  0  0
   -0.2340   51.3330   59.7290 C   0  0  0  0  0  0  0  0  0  0  0  0
    0.2930   50.2200   59.6150 O   0  0  0  0  0  0  0  0  0  0  0  0
   -1.2530   49.6920   58.5600 H   0  0  0  0  0  0  0  0  0  0  0  0
   -5.1290   50.2300   59.1760 H   0  0  0  0  0  0  0  0  0  0  0  0
   -3.6190   48.7230   62.3480 H   0  0  0  0  0  0  0  0  0  0  0  0
   -1.7910   52.5850   64.6880 H   0  0  0  0  0  0  0  0  0  0  0  0
   -5.4860   46.8120   62.4760 C   0  0  0  0  0  0  0  0  0  0  0  0
   -6.3640   46.0090   62.7750 O   0  0  0  0  0  0  0  0  0  0  0  0
   -4.2750   46.4340   62.0140 O   0  0  0  0  0  0  0  0  0  0  0  0
   -3.5140   46.8040   62.4980 H   0  0  0  0  0  0  0  0  0  0  0  0
   -4.0360   51.7880   63.4600 C   0  0  0  0  0  0  0  0  0  0  0  0
   -4.5220   51.9420   62.3440 O   0  0  0  0  0  0  0  0  0  0  0  0
   -4.6260   52.3570   64.5310 O   0  0  0  0  0  0  0  0  0  0  0  0
   -5.3150   53.0450   64.4360 H   0  0  0  0  0  0  0  0  0  0  0  0
   -2.4490   52.6610   59.3740 C   0  0  0  0  0  2  0  0  0  0  0  0
   -2.4340   54.1800   59.1830 C   0  0  0  0  0  2  0  0  0  0  0  0
   -3.2790   54.7140   58.0180 C   0  0  0  0  0  2  0  0  0  0  0  0
   -7.8860   50.1470   57.2140 C   0  0  0  0  0  1  0  0  0  0  0  0
   -6.7790   51.0750   57.2690 N   0  0  0  0  0  0  0  0  0  0  0  0
   -6.9750   52.2950   57.8740 C   0  0  0  0  0  0  0  0  0  0  0  0
   -8.0480   52.6150   58.3780 O   0  0  0  0  0  0  0  0  0  0  0  0
   -5.8490   53.0930   57.8770 N   0  0  0  0  0  0  0  0  0  0  0  0
   -5.7540   54.3220   58.4780 C   0  0  0  0  0  0  0  0  0  0  0  0
   -6.7620   54.8790   59.0590 N   0  0  0  0  0  0  0  0  0  0  0  0
   -4.5970   55.0190   58.5080 N   0  0  0  0  0  0  0  0  0  0  0  0
   -6.0920   51.0190   56.5330 H   0  0  0  0  0  0  0  0  0  0  0  0
   -5.0000   52.6940   57.5200 H   0  0  0  0  0  0  0  0  0  0  0  0
   -7.5800   54.2490   58.9820 H   0  0  0  0  0  0  0  0  0  0  0  0
   -4.6980   55.8500   59.0900 H   0  0  0  0  0  0  0  0  0  0  0  0
    1.6050   51.0180   62.4550 C   0  0  0  0  0  2  0  0  0  0  0  0
    1.6610   49.6500   63.0960 C   0  0  0  0  0  0  0  0  0  0  0  0
    0.7690   49.3190   64.1260 C   0  0  0  0  0  3  0  0  0  0  0  0
    0.9390   48.1430   64.8540 C   0  0  0  0  0  3  0  0  0  0  0  0
    1.9690   47.2650   64.5260 C   0  0  0  0  0  3  0  0  0  0  0  0
    2.8050   47.5420   63.4460 C   0  0  0  0  0  3  0  0  0  0  0  0
    2.6520   48.7300   62.7310 C   0  0  0  0  0  3  0  0  0  0  0  0
  1 37  1  1  0  0  0
  1 23  1  0  0  0  0
  2 25  1  0  0  0  0
  2  1  1  0  0  0  0
  3  5  1  0  0  0  0
  3  2  1  0  0  0  0
  4  3  2  0  0  0  0
  5  6  1  1  0  0  0
  5  7  1  0  0  0  0
  7  8  1  0  0  0  0
  8 10  1  0  0  0  0
  9  8  2  0  0  0  0
 10 11  1  0  0  0  0
 11 29  1  6  0  0  0
 11 12  1  0  0  0  0
 12 13  1  0  0  0  0
 13 15  1  0  0  0  0
 13 14  2  0  0  0  0
 16 33  1  1  0  0  0
 16 17  1  0  0  0  0
 16 15  1  0  0  0  0
 17 28  1  0  0  0  0
 18 19  2  0  0  0  0
 18 17  1  0  0  0  0
 20 52  1  1  0  0  0
 20 18  1  0  0  0  0
 21 20  1  0  0  0  0
 22 21  1  0  0  0  0
 23 21  1  0  0  0  0
 24 23  2  0  0  0  0
 26  7  1  0  0  0  0
 27 12  1  0  0  0  0
 29 30  2  0  0  0  0
 31 29  1  0  0  0  0
 31 32  1  0  0  0  0
 33 35  1  0  0  0  0
 34 33  2  0  0  0  0
 36 35  1  0  0  0  0
 38 37  1  0  0  0  0
 39 47  1  0  0  0  0
 39 38  1  0  0  0  0
 40 41  1  0  0  0  0
 41 42  1  0  0  0  0
 42 44  1  0  0  0  0
 42 43  2  0  0  0  0
 44 45  1  0  0  0  0
 45 47  1  0  0  0  0
 45 46  2  0  0  0  0
 47 51  1  0  0  0  0
 48 41  1  0  0  0  0
 49 44  1  0  0  0  0
 50 46  1  0  0  0  0
 52 53  1  0  0  0  0
 53 54  1  0  0  0  0
 54 55  2  0  0  0  0
 56 55  1  0  0  0  0
 57 56  2  0  0  0  0
 58 53  2  0  0  0  0
 58 57  1  0  0  0  0
M  END
>  <MODEL>
3

>  <REMARK>
 VINA RESULT:      -7.8      3.179      8.106
  Name = CHEMBL197199-4500
  13 active torsions:
  status: ('A' for Active; 'I' for Inactive)
    1  A    between atoms: C_1  and  N_2
    2  A    between atoms: N_8  and  C_9
    3  A    between atoms: C_9  and  C_10
    4  A    between atoms: C_10  and  C_11
    5  A    between atoms: C_11  and  C_12
    6  A    between atoms: C_16  and  C_17
    7  A    between atoms: C_22  and  C_23
    8  A    between atoms: C_23  and  O_25
    9  A    between atoms: CA_30  and  C_31
   10  A    between atoms: C_31  and  OXT_33
   11  A    between atoms: CA_37  and  CB_38
   12  A    between atoms: CB_38  and  CG_39
   13  A    between atoms: N_45  and  C_46
                            x       y       z     vdW  Elec       q    Type
                         _______ _______ _______ _____ _____    ______ ____

>  <TORSDO>
F 10

>  <rfscore_v2>
6.7131767375957345

>  <vina_affinity>
-5.829102990719753

>  <vina_gauss1>
81.79259424817656

>  <vina_gauss2>
1115.9339970671942

>  <vina_repulsion>
3.238684744971474

>  <vina_hydrophobic>
36.77476960078775

>  <vina_hydrogen>
4.566947671024873

>  <vina_intra_gauss1>
115.40443083433722

>  <vina_intra_gauss2>
994.3879007308847

>  <vina_intra_repulsion>
8.781303208886051

>  <vina_intra_hydrophobic>
11.338141740025346

>  <vina_intra_hydrogen>
7.447029441974286

>  <vina_num_rotors>
12.0

>  <rfscore_v3>
6.46311090564991

>  <PLEClinear_p5_l1_s65536>
3.0855645122497783

>  <nnscore>
4.517003071661227

$$$$
CHEMBL197199-4500
 OpenBabel12202021073D

 58 59  0  0  1  0  0  0  0  0999 V2000
   -2.8100   50.6010   57.8540 C   0  0  2  0  0  3  0  0  0  0  0  0
   -3.5630   49.7130   58.7790 N   0  0  0  0  0  0  0  0  0  0  0  0
   -4.7700   49.9590   59.3830 C   0  0  0  0  0  0  0  0  0  0  0  0
   -5.5800   50.7700   58.9330 O   0  0  0  0  0  0  0  0  0  0  0  0
   -4.9070   49.4110   60.8330 C   0  0  1  0  0  3  0  0  0  0  0  0
   -3.9030   48.3140   61.1940 C   0  0  0  0  0  1  0  0  0  0  0  0
   -4.6830   50.5880   61.6890 N   0  0  0  0  0  0  0  0  0  0  0  0
   -4.7250   50.5230   63.0600 C   0  0  0  0  0  0  0  0  0  0  0  0
   -5.1820   49.5770   63.6870 O   0  0  0  0  0  0  0  0  0  0  0  0
   -4.0740   51.7020   63.7480 C   0  0  0  0  0  2  0  0  0  0  0  0
   -2.8230   51.3230   64.5510 C   0  0  2  0  0  3  0  0  0  0  0  0
   -1.6360   51.2310   63.6840 N   0  0  0  0  0  0  0  0  0  0  0  0
   -0.3900   51.5840   64.1610 C   0  0  0  0  0  0  0  0  0  0  0  0
   -0.1850   51.9510   65.3200 O   0  0  0  0  0  0  0  0  0  0  0  0
    0.6950   51.7020   63.0980 C   0  0  0  0  0  2  0  0  0  0  0  0
    0.1120   52.2200   61.7850 C   0  0  2  0  0  3  0  0  0  0  0  0
    1.1380   52.4540   60.7570 N   0  0  0  0  0  0  0  0  0  0  0  0
    1.3520   51.9340   59.5070 C   0  0  0  0  0  0  0  0  0  0  0  0
    2.0930   52.5840   58.7590 O   0  0  0  0  0  0  0  0  0  0  0  0
    0.7220   50.5880   59.0210 C   0  0  1  0  0  3  0  0  0  0  0  0
   -0.2980   50.8110   57.9610 N   0  0  0  0  0  0  0  0  0  0  0  0
    0.1590   51.1680   56.6190 C   0  0  0  0  0  1  0  0  0  0  0  0
   -1.3930   49.9640   58.0160 C   0  0  0  0  0  0  0  0  0  0  0  0
   -1.2660   48.7690   58.3150 O   0  0  0  0  0  0  0  0  0  0  0  0
   -3.0930   48.8310   58.9790 H   0  0  0  0  0  0  0  0  0  0  0  0
   -4.9380   51.4820   61.2740 H   0  0  0  0  0  0  0  0  0  0  0  0
   -1.6720   50.4900   62.9930 H   0  0  0  0  0  0  0  0  0  0  0  0
    1.6560   53.3240   60.8420 H   0  0  0  0  0  0  0  0  0  0  0  0
   -2.9020   49.9950   65.3160 C   0  0  0  0  0  0  0  0  0  0  0  0
   -3.3920   49.8950   66.4360 O   0  0  0  0  0  0  0  0  0  0  0  0
   -2.4240   48.9360   64.6290 O   0  0  0  0  0  0  0  0  0  0  0  0
   -1.8870   49.1590   63.8470 H   0  0  0  0  0  0  0  0  0  0  0  0
   -0.7610   53.4850   61.9890 C   0  0  0  0  0  0  0  0  0  0  0  0
   -1.9610   53.4580   61.7350 O   0  0  0  0  0  0  0  0  0  0  0  0
   -0.1890   54.6350   62.3980 O   0  0  0  0  0  0  0  0  0  0  0  0
   -0.4610   55.5040   62.0400 H   0  0  0  0  0  0  0  0  0  0  0  0
   -2.9040   52.0640   58.3320 C   0  0  0  0  0  2  0  0  0  0  0  0
   -3.7500   53.0680   57.5430 C   0  0  0  0  0  2  0  0  0  0  0  0
   -3.0830   54.4200   57.2560 C   0  0  0  0  0  2  0  0  0  0  0  0
    3.0390   56.0480   58.8680 C   0  0  0  0  0  1  0  0  0  0  0  0
    1.7550   55.5740   58.4020 N   0  0  0  0  0  0  0  0  0  0  0  0
    0.6390   55.8520   59.1590 C   0  0  0  0  0  0  0  0  0  0  0  0
    0.6960   56.4960   60.2030 O   0  0  0  0  0  0  0  0  0  0  0  0
   -0.5290   55.3610   58.6140 N   0  0  0  0  0  0  0  0  0  0  0  0
   -1.7850   55.5610   59.1270 C   0  0  0  0  0  0  0  0  0  0  0  0
   -1.9790   56.1960   60.2330 N   0  0  0  0  0  0  0  0  0  0  0  0
   -2.8960   55.1150   58.5020 N   0  0  0  0  0  0  0  0  0  0  0  0
    1.7470   54.7360   57.8410 H   0  0  0  0  0  0  0  0  0  0  0  0
   -0.4710   54.9300   57.7100 H   0  0  0  0  0  0  0  0  0  0  0  0
   -1.0620   56.4970   60.6080 H   0  0  0  0  0  0  0  0  0  0  0  0
   -3.7320   55.4550   58.9770 H   0  0  0  0  0  0  0  0  0  0  0  0
    1.8400   49.6040   58.5840 C   0  0  0  0  0  2  0  0  0  0  0  0
    2.9410   49.5280   59.6160 C   0  0  0  0  0  0  0  0  0  0  0  0
    4.2700   49.7840   59.2480 C   0  0  0  0  0  3  0  0  0  0  0  0
    5.3100   49.5270   60.1390 C   0  0  0  0  0  3  0  0  0  0  0  0
    5.0290   49.0600   61.4200 C   0  0  0  0  0  3  0  0  0  0  0  0
    3.7060   48.8890   61.8260 C   0  0  0  0  0  3  0  0  0  0  0  0
    2.6640   49.1230   60.9280 C   0  0  0  0  0  3  0  0  0  0  0  0
  1 23  1  0  0  0  0
  1 37  1  1  0  0  0
  1  2  1  0  0  0  0
  2 25  1  0  0  0  0
  2  3  1  0  0  0  0
  3  5  1  0  0  0  0
  4  3  2  0  0  0  0
  5  6  1  1  0  0  0
  5  7  1  0  0  0  0
  7  8  1  0  0  0  0
  8  9  2  0  0  0  0
  8 10  1  0  0  0  0
 10 11  1  0  0  0  0
 11 29  1  6  0  0  0
 12 13  1  0  0  0  0
 12 11  1  0  0  0  0
 13 14  2  0  0  0  0
 15 13  1  0  0  0  0
 16 33  1  1  0  0  0
 16 15  1  0  0  0  0
 17 28  1  0  0  0  0
 17 16  1  0  0  0  0
 18 17  1  0  0  0  0
 19 18  2  0  0  0  0
 20 52  1  6  0  0  0
 20 18  1  0  0  0  0
 21 23  1  0  0  0  0
 21 20  1  0  0  0  0
 22 21  1  0  0  0  0
 23 24  2  0  0  0  0
 26  7  1  0  0  0  0
 27 12  1  0  0  0  0
 29 30  2  0  0  0  0
 31 29  1  0  0  0  0
 32 31  1  0  0  0  0
 33 35  1  0  0  0  0
 34 33  2  0  0  0  0
 36 35  1  0  0  0  0
 38 37  1  0  0  0  0
 39 38  1  0  0  0  0
 39 47  1  0  0  0  0
 41 40  1  0  0  0  0
 41 42  1  0  0  0  0
 42 43  2  0  0  0  0
 44 45  1  0  0  0  0
 44 42  1  0  0  0  0
 45 46  2  0  0  0  0
 46 50  1  0  0  0  0
 47 51  1  0  0  0  0
 47 45  1  0  0  0  0
 48 41  1  0  0  0  0
 49 44  1  0  0  0  0
 52 53  1  0  0  0  0
 53 58  1  0  0  0  0
 54 53  2  0  0  0  0
 54 55  1  0  0  0  0
 55 56  2  0  0  0  0
 56 57  1  0  0  0  0
 58 57  2  0  0  0  0
M  END
>  <MODEL>
4

>  <REMARK>
 VINA RESULT:      -7.7      3.296      7.677
  Name = CHEMBL197199-4500
  13 active torsions:
  status: ('A' for Active; 'I' for Inactive)
    1  A    between atoms: C_1  and  N_2
    2  A    between atoms: N_8  and  C_9
    3  A    between atoms: C_9  and  C_10
    4  A    between atoms: C_10  and  C_11
    5  A    between atoms: C_11  and  C_12
    6  A    between atoms: C_16  and  C_17
    7  A    between atoms: C_22  and  C_23
    8  A    between atoms: C_23  and  O_25
    9  A    between atoms: CA_30  and  C_31
   10  A    between atoms: C_31  and  OXT_33
   11  A    between atoms: CA_37  and  CB_38
   12  A    between atoms: CB_38  and  CG_39
   13  A    between atoms: N_45  and  C_46
                            x       y       z     vdW  Elec       q    Type
                         _______ _______ _______ _____ _____    ______ ____

>  <TORSDO>
F 10

>  <rfscore_v2>
6.375601004717503

>  <vina_affinity>
-5.882488633705606

>  <vina_gauss1>
60.30552952732011

>  <vina_gauss2>
1337.4547392236118

>  <vina_repulsion>
1.950992171230017

>  <vina_hydrophobic>
25.808186104069254

>  <vina_hydrogen>
2.8906617386386557

>  <vina_intra_gauss1>
130.28930737011697

>  <vina_intra_gauss2>
1000.0605639894665

>  <vina_intra_repulsion>
9.318296502880912

>  <vina_intra_hydrophobic>
11.526783264085182

>  <vina_intra_hydrogen>
9.031749870390463

>  <vina_num_rotors>
12.0

>  <rfscore_v3>
6.238751559940052

>  <PLEClinear_p5_l1_s65536>
2.832886653288071

>  <nnscore>
4.520095506028533

$$$$
CHEMBL197199-4500
 OpenBabel12202021073D

 58 59  0  0  1  0  0  0  0  0999 V2000
   -0.5170   50.0620   65.2910 C   0  0  2  0  0  3  0  0  0  0  0  0
   -1.6170   50.4400   66.2150 N   0  0  0  0  0  0  0  0  0  0  0  0
   -2.3040   49.6260   67.0800 C   0  0  0  0  0  0  0  0  0  0  0  0
   -1.8400   48.5640   67.4970 O   0  0  0  0  0  0  0  0  0  0  0  0
   -3.8190   49.9520   67.2320 C   0  0  1  0  0  3  0  0  0  0  0  0
   -4.2120   51.3610   66.7860 C   0  0  0  0  0  1  0  0  0  0  0  0
   -4.4920   48.9560   66.3800 N   0  0  0  0  0  0  0  0  0  0  0  0
   -5.8570   48.9040   66.2430 C   0  0  0  0  0  0  0  0  0  0  0  0
   -6.6410   49.4890   66.9780 O   0  0  0  0  0  0  0  0  0  0  0  0
   -6.3210   48.1160   65.0400 C   0  0  0  0  0  2  0  0  0  0  0  0
   -7.0350   48.9740   63.9880 C   0  0  2  0  0  3  0  0  0  0  0  0
   -6.0710   49.6610   63.1110 N   0  0  0  0  0  0  0  0  0  0  0  0
   -6.3710   49.8910   61.7830 C   0  0  0  0  0  0  0  0  0  0  0  0
   -7.4470   49.5850   61.2670 O   0  0  0  0  0  0  0  0  0  0  0  0
   -5.1970   50.3570   60.9320 C   0  0  0  0  0  2  0  0  0  0  0  0
   -3.8950   49.7170   61.4080 C   0  0  2  0  0  3  0  0  0  0  0  0
   -2.7470   50.0520   60.5500 N   0  0  0  0  0  0  0  0  0  0  0  0
   -1.5570   50.6930   60.7790 C   0  0  0  0  0  0  0  0  0  0  0  0
   -0.6620   50.5090   59.9450 O   0  0  0  0  0  0  0  0  0  0  0  0
   -1.3120   51.6250   62.0110 C   0  0  1  0  0  3  0  0  0  0  0  0
   -0.3410   51.0280   62.9660 N   0  0  0  0  0  0  0  0  0  0  0  0
    1.0750   51.0110   62.6020 C   0  0  0  0  0  1  0  0  0  0  0  0
   -0.6130   51.2690   64.3030 C   0  0  0  0  0  0  0  0  0  0  0  0
   -1.0460   52.3650   64.6830 O   0  0  0  0  0  0  0  0  0  0  0  0
   -1.8790   51.4230   66.1670 H   0  0  0  0  0  0  0  0  0  0  0  0
   -3.9950   48.0750   66.2660 H   0  0  0  0  0  0  0  0  0  0  0  0
   -5.4860   50.3450   63.5770 H   0  0  0  0  0  0  0  0  0  0  0  0
   -2.6690   49.5150   59.6910 H   0  0  0  0  0  0  0  0  0  0  0  0
   -7.9660   50.0630   64.5390 C   0  0  0  0  0  0  0  0  0  0  0  0
   -9.1390   49.8560   64.8300 O   0  0  0  0  0  0  0  0  0  0  0  0
   -7.3660   51.2590   64.7200 O   0  0  0  0  0  0  0  0  0  0  0  0
   -6.4620   51.2170   65.0820 H   0  0  0  0  0  0  0  0  0  0  0  0
   -4.0240   48.1820   61.5800 C   0  0  0  0  0  0  0  0  0  0  0  0
   -3.9750   47.6770   62.6960 O   0  0  0  0  0  0  0  0  0  0  0  0
   -4.1400   47.3930   60.4920 O   0  0  0  0  0  0  0  0  0  0  0  0
   -4.5510   47.7120   59.6640 H   0  0  0  0  0  0  0  0  0  0  0  0
   -0.8130   48.6930   64.6460 C   0  0  0  0  0  3  0  0  0  0  0  0
    0.2250   47.5700   64.7390 C   0  0  0  0  0  3  0  0  0  0  0  0
    1.5520   47.9440   65.4140 C   0  0  0  0  0  2  0  0  0  0  0  0
   -0.8280   49.3010   71.3480 C   0  0  0  0  0  1  0  0  0  0  0  0
   -0.3230   49.1690   70.0000 N   0  0  0  0  0  0  0  0  0  0  0  0
    0.4040   48.0440   69.6800 C   0  0  0  0  0  0  0  0  0  0  0  0
    0.6260   47.1510   70.4920 O   0  0  0  0  0  0  0  0  0  0  0  0
    0.8260   48.0200   68.3660 N   0  0  0  0  0  0  0  0  0  0  0  0
    1.5010   46.9850   67.7730 C   0  0  0  0  0  0  0  0  0  0  0  0
    1.8650   45.9370   68.4330 N   0  0  0  0  0  0  0  0  0  0  0  0
    1.8190   46.9930   66.4600 N   0  0  0  0  0  0  0  0  0  0  0  0
   -0.1240   50.0190   69.4950 H   0  0  0  0  0  0  0  0  0  0  0  0
    0.5090   48.7590   67.7670 H   0  0  0  0  0  0  0  0  0  0  0  0
    1.5560   46.0410   69.4160 H   0  0  0  0  0  0  0  0  0  0  0  0
    2.2180   46.0960   66.1860 H   0  0  0  0  0  0  0  0  0  0  0  0
   -0.8920   53.0410   61.5310 C   0  0  0  0  0  2  0  0  0  0  0  0
   -1.7630   53.5170   60.3910 C   0  0  0  0  0  0  0  0  0  0  0  0
   -1.1790   53.9450   59.1900 C   0  0  0  0  0  3  0  0  0  0  0  0
   -1.9540   54.5660   58.2130 C   0  0  0  0  0  3  0  0  0  0  0  0
   -3.3240   54.7200   58.4050 C   0  0  0  0  0  3  0  0  0  0  0  0
   -3.9290   54.2160   59.5550 C   0  0  0  0  0  3  0  0  0  0  0  0
   -3.1520   53.6150   60.5460 C   0  0  0  0  0  3  0  0  0  0  0  0
  1 37  1  6  0  0  0
  1  2  1  0  0  0  0
  2  3  1  0  0  0  0
  3  5  1  0  0  0  0
  3  4  2  0  0  0  0
  5  6  1  6  0  0  0
  7  5  1  0  0  0  0
  8  7  1  0  0  0  0
  8  9  2  0  0  0  0
 10  8  1  0  0  0  0
 11 29  1  1  0  0  0
 11 10  1  0  0  0  0
 12 27  1  0  0  0  0
 12 11  1  0  0  0  0
 13 12  1  0  0  0  0
 14 13  2  0  0  0  0
 15 16  1  0  0  0  0
 15 13  1  0  0  0  0
 16 33  1  6  0  0  0
 17 18  1  0  0  0  0
 17 16  1  0  0  0  0
 18 20  1  0  0  0  0
 19 18  2  0  0  0  0
 20 52  1  6  0  0  0
 20 21  1  0  0  0  0
 21 23  1  0  0  0  0
 22 21  1  0  0  0  0
 23 24  2  0  0  0  0
 23  1  1  0  0  0  0
 25  2  1  0  0  0  0
 26  7  1  0  0  0  0
 28 17  1  0  0  0  0
 29 31  1  0  0  0  0
 29 30  2  0  0  0  0
 31 32  1  0  0  0  0
 33 34  2  0  0  0  0
 35 33  1  0  0  0  0
 36 35  1  0  0  0  0
 37 38  2  0  0  0  0
 38 39  1  0  0  0  0
 39 47  1  0  0  0  0
 41 40  1  0  0  0  0
 42 41  1  0  0  0  0
 42 43  2  0  0  0  0
 44 42  1  0  0  0  0
 45 44  1  0  0  0  0
 45 46  2  0  0  0  0
 46 50  1  0  0  0  0
 47 45  1  0  0  0  0
 48 41  1  0  0  0  0
 49 44  1  0  0  0  0
 51 47  1  0  0  0  0
 53 58  1  0  0  0  0
 53 52  1  0  0  0  0
 54 53  2  0  0  0  0
 55 56  2  0  0  0  0
 55 54  1  0  0  0  0
 56 57  1  0  0  0  0
 57 58  2  0  0  0  0
M  END
>  <MODEL>
5

>  <REMARK>
 VINA RESULT:      -7.6      2.238      3.860
  Name = CHEMBL197199-4500
  13 active torsions:
  status: ('A' for Active; 'I' for Inactive)
    1  A    between atoms: C_1  and  N_2
    2  A    between atoms: N_8  and  C_9
    3  A    between atoms: C_9  and  C_10
    4  A    between atoms: C_10  and  C_11
    5  A    between atoms: C_11  and  C_12
    6  A    between atoms: C_16  and  C_17
    7  A    between atoms: C_22  and  C_23
    8  A    between atoms: C_23  and  O_25
    9  A    between atoms: CA_30  and  C_31
   10  A    between atoms: C_31  and  OXT_33
   11  A    between atoms: CA_37  and  CB_38
   12  A    between atoms: CB_38  and  CG_39
   13  A    between atoms: N_45  and  C_46
                            x       y       z     vdW  Elec       q    Type
                         _______ _______ _______ _____ _____    ______ ____

>  <TORSDO>
F 10

>  <rfscore_v2>
6.74578192790543

>  <vina_affinity>
-6.191813088065029

>  <vina_gauss1>
93.89667843189483

>  <vina_gauss2>
1711.746945204915

>  <vina_repulsion>
4.779322589868702

>  <vina_hydrophobic>
14.658110074836024

>  <vina_hydrogen>
2.5571382157836924

>  <vina_intra_gauss1>
113.13699127481812

>  <vina_intra_gauss2>
846.6062686857724

>  <vina_intra_repulsion>
9.852445590764665

>  <vina_intra_hydrophobic>
11.51465607636543

>  <vina_intra_hydrogen>
8.228472456775417

>  <vina_num_rotors>
11.0

>  <rfscore_v3>
6.382478325951836

>  <PLEClinear_p5_l1_s65536>
2.69909738528747

>  <nnscore>
5.387683329605426

$$$$
CHEMBL197199-4500
 OpenBabel12202021073D

 58 59  0  0  1  0  0  0  0  0999 V2000
   -2.8650   50.3450   62.3890 C   0  0  2  0  0  3  0  0  0  0  0  0
   -3.2090   49.0760   61.6950 N   0  0  0  0  0  0  0  0  0  0  0  0
   -4.0700   48.9020   60.6420 C   0  0  0  0  0  0  0  0  0  0  0  0
   -4.3670   49.8170   59.8740 O   0  0  0  0  0  0  0  0  0  0  0  0
   -4.8990   47.5850   60.6770 C   0  0  1  0  0  3  0  0  0  0  0  0
   -4.3240   46.4970   61.5860 C   0  0  0  0  0  1  0  0  0  0  0  0
   -6.2200   48.0020   61.1780 N   0  0  0  0  0  0  0  0  0  0  0  0
   -7.2560   47.1180   61.3530 C   0  0  0  0  0  0  0  0  0  0  0  0
   -7.2730   45.9840   60.8930 O   0  0  0  0  0  0  0  0  0  0  0  0
   -8.3600   47.6380   62.2450 C   0  0  0  0  0  2  0  0  0  0  0  0
   -8.5050   46.8530   63.5540 C   0  0  2  0  0  3  0  0  0  0  0  0
   -7.5350   47.3090   64.5650 N   0  0  0  0  0  0  0  0  0  0  0  0
   -7.8640   47.3030   65.9060 C   0  0  0  0  0  0  0  0  0  0  0  0
   -8.9410   46.8910   66.3400 O   0  0  0  0  0  0  0  0  0  0  0  0
   -6.8870   48.0450   66.8090 C   0  0  0  0  0  2  0  0  0  0  0  0
   -6.2920   49.2520   66.0870 C   0  0  2  0  0  3  0  0  0  0  0  0
   -5.4240   50.0640   66.9530 N   0  0  0  0  0  0  0  0  0  0  0  0
   -4.0990   50.4110   66.8960 C   0  0  0  0  0  0  0  0  0  0  0  0
   -3.7530   51.3840   67.5790 O   0  0  0  0  0  0  0  0  0  0  0  0
   -3.0480   49.6350   66.0360 C   0  0  1  0  0  3  0  0  0  0  0  0
   -2.5630   50.4540   64.8920 N   0  0  0  0  0  0  0  0  0  0  0  0
   -1.6390   51.5530   65.1640 C   0  0  0  0  0  1  0  0  0  0  0  0
   -2.3240   49.7440   63.7260 C   0  0  0  0  0  0  0  0  0  0  0  0
   -1.8200   48.6140   63.7540 O   0  0  0  0  0  0  0  0  0  0  0  0
   -2.7440   48.2550   62.0810 H   0  0  0  0  0  0  0  0  0  0  0  0
   -6.4810   48.9630   60.9690 H   0  0  0  0  0  0  0  0  0  0  0  0
   -6.5650   47.1400   64.3280 H   0  0  0  0  0  0  0  0  0  0  0  0
   -5.9020   50.7050   67.5800 H   0  0  0  0  0  0  0  0  0  0  0  0
   -8.3270   45.3330   63.4410 C   0  0  0  0  0  0  0  0  0  0  0  0
   -9.2240   44.5770   63.0850 O   0  0  0  0  0  0  0  0  0  0  0  0
   -7.0780   44.9040   63.7250 O   0  0  0  0  0  0  0  0  0  0  0  0
   -6.3850   45.5880   63.6750 H   0  0  0  0  0  0  0  0  0  0  0  0
   -7.3800   50.1310   65.4190 C   0  0  0  0  0  0  0  0  0  0  0  0
   -7.3330   50.3700   64.2170 O   0  0  0  0  0  0  0  0  0  0  0  0
   -8.3560   50.6790   66.1720 O   0  0  0  0  0  0  0  0  0  0  0  0
   -8.5570   50.3530   67.0720 H   0  0  0  0  0  0  0  0  0  0  0  0
   -4.1260   51.2170   62.5530 C   0  0  0  0  0  2  0  0  0  0  0  0
   -4.0810   52.6970   62.1640 C   0  0  0  0  0  2  0  0  0  0  0  0
   -4.8990   53.0860   60.9250 C   0  0  0  0  0  2  0  0  0  0  0  0
   -0.7160   57.7560   59.0790 C   0  0  0  0  0  1  0  0  0  0  0  0
   -1.7220   56.8460   59.5780 N   0  0  0  0  0  0  0  0  0  0  0  0
   -1.8930   55.6420   58.9340 C   0  0  0  0  0  0  0  0  0  0  0  0
   -1.2170   55.3110   57.9650 O   0  0  0  0  0  0  0  0  0  0  0  0
   -2.8710   54.8510   59.5030 N   0  0  0  0  0  0  0  0  0  0  0  0
   -3.1890   53.5790   59.1020 C   0  0  0  0  0  0  0  0  0  0  0  0
   -2.6230   53.0190   58.0870 N   0  0  0  0  0  0  0  0  0  0  0  0
   -4.1080   52.8300   59.7520 N   0  0  0  0  0  0  0  0  0  0  0  0
   -2.5200   57.2490   60.0450 H   0  0  0  0  0  0  0  0  0  0  0  0
   -3.2970   55.1810   60.3490 H   0  0  0  0  0  0  0  0  0  0  0  0
   -1.9360   53.6810   57.6840 H   0  0  0  0  0  0  0  0  0  0  0  0
   -4.1240   51.8830   59.3740 H   0  0  0  0  0  0  0  0  0  0  0  0
   -1.8950   49.1210   66.9410 C   0  0  0  0  0  2  0  0  0  0  0  0
   -2.2640   47.8210   67.6180 C   0  0  0  0  0  0  0  0  0  0  0  0
   -3.4610   47.1700   67.2850 C   0  0  0  0  0  3  0  0  0  0  0  0
   -3.9040   46.0840   68.0370 C   0  0  0  0  0  3  0  0  0  0  0  0
   -3.1320   45.6080   69.0940 C   0  0  0  0  0  3  0  0  0  0  0  0
   -1.8980   46.1920   69.3750 C   0  0  0  0  0  3  0  0  0  0  0  0
   -1.4630   47.2950   68.6390 C   0  0  0  0  0  3  0  0  0  0  0  0
  1 37  1  1  0  0  0
  1 23  1  0  0  0  0
  2 25  1  0  0  0  0
  2  1  1  0  0  0  0
  3  5  1  0  0  0  0
  3  2  1  0  0  0  0
  4  3  2  0  0  0  0
  5  7  1  0  0  0  0
  5  6  1  1  0  0  0
  7  8  1  0  0  0  0
  8 10  1  0  0  0  0
  9  8  2  0  0  0  0
 10 11  1  0  0  0  0
 11 29  1  6  0  0  0
 11 12  1  0  0  0  0
 12 13  1  0  0  0  0
 13 14  2  0  0  0  0
 13 15  1  0  0  0  0
 16 33  1  1  0  0  0
 16 15  1  0  0  0  0
 16 17  1  0  0  0  0
 17 28  1  0  0  0  0
 18 17  1  0  0  0  0
 18 19  2  0  0  0  0
 20 18  1  0  0  0  0
 20 52  1  1  0  0  0
 21 22  1  0  0  0  0
 21 20  1  0  0  0  0
 23 24  2  0  0  0  0
 23 21  1  0  0  0  0
 26  7  1  0  0  0  0
 27 12  1  0  0  0  0
 29 31  1  0  0  0  0
 30 29  2  0  0  0  0
 32 31  1  0  0  0  0
 33 35  1  0  0  0  0
 34 33  2  0  0  0  0
 35 36  1  0  0  0  0
 38 37  1  0  0  0  0
 39 38  1  0  0  0  0
 40 41  1  0  0  0  0
 41 48  1  0  0  0  0
 42 44  1  0  0  0  0
 42 41  1  0  0  0  0
 43 42  2  0  0  0  0
 44 49  1  0  0  0  0
 45 44  1  0  0  0  0
 45 47  1  0  0  0  0
 46 45  2  0  0  0  0
 47 39  1  0  0  0  0
 50 46  1  0  0  0  0
 51 47  1  0  0  0  0
 52 53  1  0  0  0  0
 53 58  1  0  0  0  0
 54 53  2  0  0  0  0
 54 55  1  0  0  0  0
 55 56  2  0  0  0  0
 56 57  1  0  0  0  0
 58 57  2  0  0  0  0
M  END
>  <MODEL>
6

>  <REMARK>
 VINA RESULT:      -7.5      3.744      7.616
  Name = CHEMBL197199-4500
  13 active torsions:
  status: ('A' for Active; 'I' for Inactive)
    1  A    between atoms: C_1  and  N_2
    2  A    between atoms: N_8  and  C_9
    3  A    between atoms: C_9  and  C_10
    4  A    between atoms: C_10  and  C_11
    5  A    between atoms: C_11  and  C_12
    6  A    between atoms: C_16  and  C_17
    7  A    between atoms: C_22  and  C_23
    8  A    between atoms: C_23  and  O_25
    9  A    between atoms: CA_30  and  C_31
   10  A    between atoms: C_31  and  OXT_33
   11  A    between atoms: CA_37  and  CB_38
   12  A    between atoms: CB_38  and  CG_39
   13  A    between atoms: N_45  and  C_46
                            x       y       z     vdW  Elec       q    Type
                         _______ _______ _______ _____ _____    ______ ____

>  <TORSDO>
F 10

>  <rfscore_v2>
6.760822602453105

>  <vina_affinity>
-6.483840558708198

>  <vina_gauss1>
74.30364955728709

>  <vina_gauss2>
1511.0074807318838

>  <vina_repulsion>
2.461909721615423

>  <vina_hydrophobic>
27.41093822111285

>  <vina_hydrogen>
2.8950056911436244

>  <vina_intra_gauss1>
102.65403380176338

>  <vina_intra_gauss2>
853.1059261519736

>  <vina_intra_repulsion>
7.813350059814542

>  <vina_intra_hydrophobic>
12.060001186521777

>  <vina_intra_hydrogen>
5.568243768875723

>  <vina_num_rotors>
12.0

>  <rfscore_v3>
6.7875082838827785

>  <PLEClinear_p5_l1_s65536>
2.723380932070709

>  <nnscore>
4.227492955681624

$$$$
CHEMBL197199-4500
 OpenBabel12202021073D

 58 59  0  0  1  0  0  0  0  0999 V2000
   -0.6240   50.3930   64.7170 C   0  0  2  0  0  3  0  0  0  0  0  0
   -1.8630   50.9210   65.3460 N   0  0  0  0  0  0  0  0  0  0  0  0
   -2.8010   50.2250   66.0660 C   0  0  0  0  0  0  0  0  0  0  0  0
   -2.5450   49.1590   66.6270 O   0  0  0  0  0  0  0  0  0  0  0  0
   -4.2730   50.6830   65.8500 C   0  0  1  0  0  3  0  0  0  0  0  0
   -4.4210   52.0870   65.2600 C   0  0  0  0  0  1  0  0  0  0  0  0
   -4.8290   49.6910   64.9140 N   0  0  0  0  0  0  0  0  0  0  0  0
   -6.1270   49.7420   64.4700 C   0  0  0  0  0  0  0  0  0  0  0  0
   -6.9970   50.4360   64.9760 O   0  0  0  0  0  0  0  0  0  0  0  0
   -6.3810   48.9150   63.2300 C   0  0  0  0  0  2  0  0  0  0  0  0
   -6.7550   49.7560   62.0040 C   0  0  2  0  0  3  0  0  0  0  0  0
   -5.5580   50.3020   61.3400 N   0  0  0  0  0  0  0  0  0  0  0  0
   -5.5290   50.4660   59.9700 C   0  0  0  0  0  0  0  0  0  0  0  0
   -6.4860   50.2150   59.2350 O   0  0  0  0  0  0  0  0  0  0  0  0
   -4.1560   50.7760   59.3900 C   0  0  0  0  0  2  0  0  0  0  0  0
   -3.0600   50.0660   60.1820 C   0  0  2  0  0  3  0  0  0  0  0  0
   -1.7230   50.2470   59.5970 N   0  0  0  0  0  0  0  0  0  0  0  0
   -0.5600   50.8030   60.0630 C   0  0  0  0  0  0  0  0  0  0  0  0
    0.4790   50.4910   59.4670 O   0  0  0  0  0  0  0  0  0  0  0  0
   -0.5100   51.7930   61.2730 C   0  0  1  0  0  3  0  0  0  0  0  0
    0.1610   51.1830   62.4530 N   0  0  0  0  0  0  0  0  0  0  0  0
    1.6140   51.0270   62.4250 C   0  0  0  0  0  1  0  0  0  0  0  0
   -0.3810   51.5350   63.6790 C   0  0  0  0  0  0  0  0  0  0  0  0
   -0.7830   52.6850   63.8970 O   0  0  0  0  0  0  0  0  0  0  0  0
   -2.0130   51.9170   65.1930 H   0  0  0  0  0  0  0  0  0  0  0  0
   -4.4050   48.7670   64.9590 H   0  0  0  0  0  0  0  0  0  0  0  0
   -5.0310   50.9650   61.8950 H   0  0  0  0  0  0  0  0  0  0  0  0
   -1.5040   49.6500   58.8040 H   0  0  0  0  0  0  0  0  0  0  0  0
   -7.6790   50.9520   62.2740 C   0  0  0  0  0  0  0  0  0  0  0  0
   -8.9000   50.8540   62.3400 O   0  0  0  0  0  0  0  0  0  0  0  0
   -7.0260   52.1150   62.4800 O   0  0  0  0  0  0  0  0  0  0  0  0
   -6.0550   52.0400   62.5330 H   0  0  0  0  0  0  0  0  0  0  0  0
   -3.3690   48.5610   60.3910 C   0  0  0  0  0  0  0  0  0  0  0  0
   -3.4990   47.8150   59.4270 O   0  0  0  0  0  0  0  0  0  0  0  0
   -3.5470   48.0800   61.6390 O   0  0  0  0  0  0  0  0  0  0  0  0
   -3.0650   47.2930   61.9620 H   0  0  0  0  0  0  0  0  0  0  0  0
   -0.8960   49.0130   64.0870 C   0  0  0  0  0  2  0  0  0  0  0  0
   -0.0940   47.7940   64.5520 C   0  0  0  0  0  2  0  0  0  0  0  0
    1.3860   48.0520   64.8680 C   0  0  0  0  0  2  0  0  0  0  0  0
    5.3180   49.2510   59.7860 C   0  0  0  0  0  1  0  0  0  0  0  0
    4.3650   49.1310   60.8650 N   0  0  0  0  0  0  0  0  0  0  0  0
    4.2320   47.9110   61.4890 C   0  0  0  0  0  0  0  0  0  0  0  0
    4.9000   46.9320   61.1710 O   0  0  0  0  0  0  0  0  0  0  0  0
    3.3030   47.9160   62.5100 N   0  0  0  0  0  0  0  0  0  0  0  0
    3.0320   46.8550   63.3360 C   0  0  0  0  0  0  0  0  0  0  0  0
    3.6000   45.7060   63.1830 N   0  0  0  0  0  0  0  0  0  0  0  0
    2.1630   46.9500   64.3650 N   0  0  0  0  0  0  0  0  0  0  0  0
    3.5600   49.7380   60.8430 H   0  0  0  0  0  0  0  0  0  0  0  0
    2.8820   48.7950   62.7460 H   0  0  0  0  0  0  0  0  0  0  0  0
    4.2480   45.7610   62.3780 H   0  0  0  0  0  0  0  0  0  0  0  0
    2.1790   46.0970   64.9240 H   0  0  0  0  0  0  0  0  0  0  0  0
    0.1400   53.1340   60.8370 C   0  0  0  0  0  2  0  0  0  0  0  0
   -0.7870   53.9300   59.9460 C   0  0  0  0  0  0  0  0  0  0  0  0
   -2.1580   53.9880   60.2310 C   0  0  0  0  0  3  0  0  0  0  0  0
   -3.0450   54.5500   59.3150 C   0  0  0  0  0  3  0  0  0  0  0  0
   -2.5630   55.1050   58.1320 C   0  0  0  0  0  3  0  0  0  0  0  0
   -1.1930   55.1340   57.8820 C   0  0  0  0  0  3  0  0  0  0  0  0
   -0.3050   54.5500   58.7860 C   0  0  0  0  0  3  0  0  0  0  0  0
  1 37  1  6  0  0  0
  1  2  1  0  0  0  0
  2  3  1  0  0  0  0
  3  4  2  0  0  0  0
  5  6  1  6  0  0  0
  5  3  1  0  0  0  0
  7 26  1  0  0  0  0
  7  5  1  0  0  0  0
  8  7  1  0  0  0  0
  8  9  2  0  0  0  0
 10  8  1  0  0  0  0
 11 29  1  1  0  0  0
 11 10  1  0  0  0  0
 12 27  1  0  0  0  0
 12 11  1  0  0  0  0
 13 12  1  0  0  0  0
 14 13  2  0  0  0  0
 15 13  1  0  0  0  0
 15 16  1  0  0  0  0
 16 33  1  6  0  0  0
 17 18  1  0  0  0  0
 17 16  1  0  0  0  0
 18 20  1  0  0  0  0
 19 18  2  0  0  0  0
 20 52  1  6  0  0  0
 20 21  1  0  0  0  0
 21 23  1  0  0  0  0
 22 21  1  0  0  0  0
 23 24  2  0  0  0  0
 23  1  1  0  0  0  0
 25  2  1  0  0  0  0
 28 17  1  0  0  0  0
 29 30  2  0  0  0  0
 29 31  1  0  0  0  0
 31 32  1  0  0  0  0
 33 35  1  0  0  0  0
 34 33  2  0  0  0  0
 35 36  1  0  0  0  0
 37 38  1  0  0  0  0
 38 39  1  0  0  0  0
 40 41  1  0  0  0  0
 41 42  1  0  0  0  0
 42 44  1  0  0  0  0
 43 42  2  0  0  0  0
 44 49  1  0  0  0  0
 44 45  1  0  0  0  0
 45 47  1  0  0  0  0
 46 45  2  0  0  0  0
 47 39  1  0  0  0  0
 47 51  1  0  0  0  0
 48 41  1  0  0  0  0
 50 46  1  0  0  0  0
 53 54  1  0  0  0  0
 53 52  1  0  0  0  0
 55 54  2  0  0  0  0
 56 55  1  0  0  0  0
 57 56  2  0  0  0  0
 57 58  1  0  0  0  0
 58 53  2  0  0  0  0
M  END
>  <MODEL>
7

>  <REMARK>
 VINA RESULT:      -7.5      1.630      2.258
  Name = CHEMBL197199-4500
  13 active torsions:
  status: ('A' for Active; 'I' for Inactive)
    1  A    between atoms: C_1  and  N_2
    2  A    between atoms: N_8  and  C_9
    3  A    between atoms: C_9  and  C_10
    4  A    between atoms: C_10  and  C_11
    5  A    between atoms: C_11  and  C_12
    6  A    between atoms: C_16  and  C_17
    7  A    between atoms: C_22  and  C_23
    8  A    between atoms: C_23  and  O_25
    9  A    between atoms: CA_30  and  C_31
   10  A    between atoms: C_31  and  OXT_33
   11  A    between atoms: CA_37  and  CB_38
   12  A    between atoms: CB_38  and  CG_39
   13  A    between atoms: N_45  and  C_46
                            x       y       z     vdW  Elec       q    Type
                         _______ _______ _______ _____ _____    ______ ____

>  <TORSDO>
F 10

>  <rfscore_v2>
6.614182589466086

>  <vina_affinity>
-6.095315435533531

>  <vina_gauss1>
96.69899604789177

>  <vina_gauss2>
1531.6733420351688

>  <vina_repulsion>
4.0154755664860495

>  <vina_hydrophobic>
13.904874884469006

>  <vina_hydrogen>
3.2593637725299356

>  <vina_intra_gauss1>
104.24331969589176

>  <vina_intra_gauss2>
915.0700056076967

>  <vina_intra_repulsion>
7.189930611502775

>  <vina_intra_hydrophobic>
12.6483576831055

>  <vina_intra_hydrogen>
4.514059671062955

>  <vina_num_rotors>
12.0

>  <rfscore_v3>
6.3210715122100165

>  <PLEClinear_p5_l1_s65536>
2.727011610324496

>  <nnscore>
5.020607819111538

$$$$
CHEMBL197199-4500
 OpenBabel12202021073D

 58 59  0  0  1  0  0  0  0  0999 V2000
   -1.6020   51.4270   57.9520 C   0  0  2  0  0  3  0  0  0  0  0  0
   -2.0900   50.0240   57.8990 N   0  0  0  0  0  0  0  0  0  0  0  0
   -3.3190   49.5780   57.4830 C   0  0  0  0  0  0  0  0  0  0  0  0
   -4.0380   50.2320   56.7270 O   0  0  0  0  0  0  0  0  0  0  0  0
   -3.8890   48.3700   58.2830 C   0  0  1  0  0  3  0  0  0  0  0  0
   -2.8420   47.5810   59.0720 C   0  0  0  0  0  1  0  0  0  0  0  0
   -4.8590   48.9740   59.2120 N   0  0  0  0  0  0  0  0  0  0  0  0
   -5.5910   48.2290   60.1020 C   0  0  0  0  0  0  0  0  0  0  0  0
   -5.6990   47.0110   60.0500 O   0  0  0  0  0  0  0  0  0  0  0  0
   -6.2000   49.0400   61.2230 C   0  0  0  0  0  2  0  0  0  0  0  0
   -5.6320   48.6920   62.6040 C   0  0  2  0  0  3  0  0  0  0  0  0
   -4.3570   49.3890   62.8520 N   0  0  0  0  0  0  0  0  0  0  0  0
   -4.0190   49.8000   64.1260 C   0  0  0  0  0  0  0  0  0  0  0  0
   -4.7180   49.5850   65.1180 O   0  0  0  0  0  0  0  0  0  0  0  0
   -2.8200   50.7370   64.2000 C   0  0  0  0  0  2  0  0  0  0  0  0
   -2.7650   51.6440   62.9730 C   0  0  2  0  0  3  0  0  0  0  0  0
   -1.6860   52.6410   63.0480 N   0  0  0  0  0  0  0  0  0  0  0  0
   -0.5870   52.8980   62.2700 C   0  0  0  0  0  0  0  0  0  0  0  0
   -0.0690   54.0150   62.3960 O   0  0  0  0  0  0  0  0  0  0  0  0
    0.0170   51.8540   61.2740 C   0  0  1  0  0  3  0  0  0  0  0  0
   -0.1790   52.2700   59.8580 N   0  0  0  0  0  0  0  0  0  0  0  0
    0.6400   53.3600   59.3310 C   0  0  0  0  0  1  0  0  0  0  0  0
   -0.4370   51.2330   58.9760 C   0  0  0  0  0  0  0  0  0  0  0  0
    0.1400   50.1430   59.0800 O   0  0  0  0  0  0  0  0  0  0  0  0
   -1.4140   49.3380   58.2310 H   0  0  0  0  0  0  0  0  0  0  0  0
   -5.2890   49.8390   58.8890 H   0  0  0  0  0  0  0  0  0  0  0  0
   -3.5980   49.1150   62.2400 H   0  0  0  0  0  0  0  0  0  0  0  0
   -1.8820   53.4610   63.6160 H   0  0  0  0  0  0  0  0  0  0  0  0
   -5.3640   47.2020   62.8570 C   0  0  0  0  0  0  0  0  0  0  0  0
   -6.1890   46.4490   63.3630 O   0  0  0  0  0  0  0  0  0  0  0  0
   -4.1540   46.7810   62.4300 O   0  0  0  0  0  0  0  0  0  0  0  0
   -4.1730   46.1660   61.6740 H   0  0  0  0  0  0  0  0  0  0  0  0
   -4.1270   52.3280   62.6870 C   0  0  0  0  0  0  0  0  0  0  0  0
   -4.3410   52.8530   61.6000 O   0  0  0  0  0  0  0  0  0  0  0  0
   -5.0620   52.3900   63.6570 O   0  0  0  0  0  0  0  0  0  0  0  0
   -5.8820   52.9130   63.5500 H   0  0  0  0  0  0  0  0  0  0  0  0
   -2.7260   52.3610   58.4430 C   0  0  0  0  0  2  0  0  0  0  0  0
   -3.1000   53.5960   57.6190 C   0  0  0  0  0  2  0  0  0  0  0  0
   -3.6370   54.7920   58.4170 C   0  0  0  0  0  2  0  0  0  0  0  0
    1.4430   57.6260   61.3980 C   0  0  0  0  0  1  0  0  0  0  0  0
    0.2920   56.9160   60.8870 N   0  0  0  0  0  0  0  0  0  0  0  0
   -0.3150   57.3870   59.7450 C   0  0  0  0  0  0  0  0  0  0  0  0
    0.0920   58.3750   59.1420 O   0  0  0  0  0  0  0  0  0  0  0  0
   -1.3950   56.6250   59.3450 N   0  0  0  0  0  0  0  0  0  0  0  0
   -2.1270   56.8320   58.2040 C   0  0  0  0  0  0  0  0  0  0  0  0
   -1.8970   57.8270   57.4150 N   0  0  0  0  0  0  0  0  0  0  0  0
   -3.1260   56.0030   57.8320 N   0  0  0  0  0  0  0  0  0  0  0  0
   -0.2790   56.4190   61.5540 H   0  0  0  0  0  0  0  0  0  0  0  0
   -1.5830   55.7850   59.8600 H   0  0  0  0  0  0  0  0  0  0  0  0
   -1.1080   58.3780   57.7960 H   0  0  0  0  0  0  0  0  0  0  0  0
   -3.4740   56.2590   56.9090 H   0  0  0  0  0  0  0  0  0  0  0  0
    1.5070   51.5880   61.6220 C   0  0  0  0  0  2  0  0  0  0  0  0
    1.6480   50.4420   62.5980 C   0  0  0  0  0  0  0  0  0  0  0  0
    2.6810   49.5080   62.4420 C   0  0  0  0  0  3  0  0  0  0  0  0
    2.7030   48.3470   63.2120 C   0  0  0  0  0  3  0  0  0  0  0  0
    1.7220   48.1340   64.1780 C   0  0  0  0  0  3  0  0  0  0  0  0
    0.7430   49.1000   64.4020 C   0  0  0  0  0  3  0  0  0  0  0  0
    0.7050   50.2520   63.6160 C   0  0  0  0  0  3  0  0  0  0  0  0
  1 37  1  1  0  0  0
  1 23  1  0  0  0  0
  2  1  1  0  0  0  0
  2 25  1  0  0  0  0
  3  2  1  0  0  0  0
  3  5  1  0  0  0  0
  4  3  2  0  0  0  0
  5  6  1  1  0  0  0
  5  7  1  0  0  0  0
  7  8  1  0  0  0  0
  8 10  1  0  0  0  0
  9  8  2  0  0  0  0
 10 11  1  0  0  0  0
 11 12  1  0  0  0  0
 11 29  1  6  0  0  0
 12 13  1  0  0  0  0
 13 15  1  0  0  0  0
 13 14  2  0  0  0  0
 16 33  1  1  0  0  0
 16 17  1  0  0  0  0
 16 15  1  0  0  0  0
 17 28  1  0  0  0  0
 18 19  2  0  0  0  0
 18 17  1  0  0  0  0
 20 52  1  1  0  0  0
 20 18  1  0  0  0  0
 21 20  1  0  0  0  0
 22 21  1  0  0  0  0
 23 24  2  0  0  0  0
 23 21  1  0  0  0  0
 26  7  1  0  0  0  0
 27 12  1  0  0  0  0
 29 30  2  0  0  0  0
 31 29  1  0  0  0  0
 32 31  1  0  0  0  0
 33 35  1  0  0  0  0
 34 33  2  0  0  0  0
 36 35  1  0  0  0  0
 38 39  1  0  0  0  0
 38 37  1  0  0  0  0
 41 40  1  0  0  0  0
 41 48  1  0  0  0  0
 42 41  1  0  0  0  0
 43 42  2  0  0  0  0
 44 42  1  0  0  0  0
 44 49  1  0  0  0  0
 45 44  1  0  0  0  0
 46 50  1  0  0  0  0
 46 45  2  0  0  0  0
 47 45  1  0  0  0  0
 47 39  1  0  0  0  0
 51 47  1  0  0  0  0
 52 53  1  0  0  0  0
 53 58  1  0  0  0  0
 54 53  2  0  0  0  0
 54 55  1  0  0  0  0
 55 56  2  0  0  0  0
 56 57  1  0  0  0  0
 58 57  2  0  0  0  0
M  END
>  <MODEL>
8

>  <REMARK>
 VINA RESULT:      -7.3      3.464      7.774
  Name = CHEMBL197199-4500
  13 active torsions:
  status: ('A' for Active; 'I' for Inactive)
    1  A    between atoms: C_1  and  N_2
    2  A    between atoms: N_8  and  C_9
    3  A    between atoms: C_9  and  C_10
    4  A    between atoms: C_10  and  C_11
    5  A    between atoms: C_11  and  C_12
    6  A    between atoms: C_16  and  C_17
    7  A    between atoms: C_22  and  C_23
    8  A    between atoms: C_23  and  O_25
    9  A    between atoms: CA_30  and  C_31
   10  A    between atoms: C_31  and  OXT_33
   11  A    between atoms: CA_37  and  CB_38
   12  A    between atoms: CB_38  and  CG_39
   13  A    between atoms: N_45  and  C_46
                            x       y       z     vdW  Elec       q    Type
                         _______ _______ _______ _____ _____    ______ ____

>  <TORSDO>
F 10

>  <rfscore_v2>
6.689546639249643

>  <vina_affinity>
-6.415976311153962

>  <vina_gauss1>
88.84213186206536

>  <vina_gauss2>
1238.594833042663

>  <vina_repulsion>
2.418853484561758

>  <vina_hydrophobic>
37.06519330785883

>  <vina_hydrogen>
3.572250580443624

>  <vina_intra_gauss1>
99.51731844235309

>  <vina_intra_gauss2>
953.1091860515719

>  <vina_intra_repulsion>
9.146511454180278

>  <vina_intra_hydrophobic>
11.526132022937126

>  <vina_intra_hydrogen>
5.702637724947522

>  <vina_num_rotors>
12.0

>  <rfscore_v3>
6.494417931457435

>  <PLEClinear_p5_l1_s65536>
2.1354821307831484

>  <nnscore>
4.89730534760861

$$$$
CHEMBL197199-4500
 OpenBabel12202021073D

 58 59  0  0  1  0  0  0  0  0999 V2000
   -2.8940   49.4740   67.3300 C   0  0  2  0  0  3  0  0  0  0  0  0
   -1.7820   49.2150   66.3790 N   0  0  0  0  0  0  0  0  0  0  0  0
   -0.7900   50.0790   65.9910 C   0  0  0  0  0  0  0  0  0  0  0  0
   -0.4530   51.0470   66.6740 O   0  0  0  0  0  0  0  0  0  0  0  0
   -0.3560   49.9610   64.5010 C   0  0  1  0  0  3  0  0  0  0  0  0
   -0.7390   48.6400   63.8310 C   0  0  0  0  0  1  0  0  0  0  0  0
   -1.0470   51.0750   63.8310 N   0  0  0  0  0  0  0  0  0  0  0  0
   -0.9200   51.3220   62.4870 C   0  0  0  0  0  0  0  0  0  0  0  0
   -0.0580   50.8210   61.7780 O   0  0  0  0  0  0  0  0  0  0  0  0
   -2.0000   52.2170   61.9250 C   0  0  0  0  0  2  0  0  0  0  0  0
   -2.9090   51.5120   60.9100 C   0  0  2  0  0  3  0  0  0  0  0  0
   -3.9650   50.7360   61.5840 N   0  0  0  0  0  0  0  0  0  0  0  0
   -5.2140   50.6060   61.0100 C   0  0  0  0  0  0  0  0  0  0  0  0
   -5.5100   51.0800   59.9120 O   0  0  0  0  0  0  0  0  0  0  0  0
   -6.2810   50.0180   61.9240 C   0  0  0  0  0  2  0  0  0  0  0  0
   -6.0530   50.4490   63.3710 C   0  0  2  0  0  3  0  0  0  0  0  0
   -7.1190   49.9960   64.2770 N   0  0  0  0  0  0  0  0  0  0  0  0
   -7.1320   49.1860   65.3830 C   0  0  0  0  0  0  0  0  0  0  0  0
   -8.1190   49.2790   66.1240 O   0  0  0  0  0  0  0  0  0  0  0  0
   -5.9850   48.1770   65.7170 C   0  0  1  0  0  3  0  0  0  0  0  0
   -5.2240   48.5930   66.9270 N   0  0  0  0  0  0  0  0  0  0  0  0
   -5.8520   48.4280   68.2360 C   0  0  0  0  0  1  0  0  0  0  0  0
   -3.8630   48.3360   66.8770 C   0  0  0  0  0  0  0  0  0  0  0  0
   -3.4240   47.2960   66.3690 O   0  0  0  0  0  0  0  0  0  0  0  0
   -1.7940   48.2800   65.9740 H   0  0  0  0  0  0  0  0  0  0  0  0
   -1.2410   51.8820   64.4200 H   0  0  0  0  0  0  0  0  0  0  0  0
   -3.6300   49.9580   62.1400 H   0  0  0  0  0  0  0  0  0  0  0  0
   -7.9700   50.5520   64.2700 H   0  0  0  0  0  0  0  0  0  0  0  0
   -2.2060   50.5410   59.9510 C   0  0  0  0  0  0  0  0  0  0  0  0
   -2.4060   49.3310   59.9580 O   0  0  0  0  0  0  0  0  0  0  0  0
   -1.3820   51.1430   59.0670 O   0  0  0  0  0  0  0  0  0  0  0  0
   -1.8290   51.6660   58.3760 H   0  0  0  0  0  0  0  0  0  0  0  0
   -5.8370   51.9790   63.4990 C   0  0  0  0  0  0  0  0  0  0  0  0
   -5.2500   52.4430   64.4720 O   0  0  0  0  0  0  0  0  0  0  0  0
   -6.3390   52.8090   62.5620 O   0  0  0  0  0  0  0  0  0  0  0  0
   -5.8730   52.9780   61.7190 H   0  0  0  0  0  0  0  0  0  0  0  0
   -3.4490   50.8980   67.1200 C   0  0  0  0  0  2  0  0  0  0  0  0
   -3.3370   51.9300   68.2450 C   0  0  0  0  0  2  0  0  0  0  0  0
   -2.0150   51.9240   69.0260 C   0  0  0  0  0  2  0  0  0  0  0  0
    2.0270   46.8310   68.3610 C   0  0  0  0  0  1  0  0  0  0  0  0
    1.1600   47.9870   68.3400 N   0  0  0  0  0  0  0  0  0  0  0  0
    0.2630   48.1530   69.3710 C   0  0  0  0  0  0  0  0  0  0  0  0
    0.1820   47.3630   70.3070 O   0  0  0  0  0  0  0  0  0  0  0  0
   -0.5030   49.2950   69.2520 N   0  0  0  0  0  0  0  0  0  0  0  0
   -1.4170   49.7310   70.1760 C   0  0  0  0  0  0  0  0  0  0  0  0
   -1.6900   49.0560   71.2410 N   0  0  0  0  0  0  0  0  0  0  0  0
   -2.0810   50.8990   70.0340 N   0  0  0  0  0  0  0  0  0  0  0  0
    0.9180   48.3680   67.4380 H   0  0  0  0  0  0  0  0  0  0  0  0
   -0.2890   49.9170   68.4950 H   0  0  0  0  0  0  0  0  0  0  0  0
   -1.1150   48.1950   71.2440 H   0  0  0  0  0  0  0  0  0  0  0  0
   -2.6290   51.1010   70.8690 H   0  0  0  0  0  0  0  0  0  0  0  0
   -6.5580   46.7380   65.8310 C   0  0  0  0  0  2  0  0  0  0  0  0
   -6.8840   46.1670   64.4710 C   0  0  0  0  0  0  0  0  0  0  0  0
   -7.8620   45.1700   64.3430 C   0  0  0  0  0  3  0  0  0  0  0  0
   -8.0310   44.5000   63.1330 C   0  0  0  0  0  3  0  0  0  0  0  0
   -7.2620   44.8560   62.0280 C   0  0  0  0  0  3  0  0  0  0  0  0
   -6.3520   45.9070   62.1200 C   0  0  0  0  0  3  0  0  0  0  0  0
   -6.1630   46.5630   63.3380 C   0  0  0  0  0  3  0  0  0  0  0  0
  1 37  1  6  0  0  0
  2  1  1  0  0  0  0
  3  2  1  0  0  0  0
  3  4  2  0  0  0  0
  5  6  1  6  0  0  0
  5  3  1  0  0  0  0
  7 26  1  0  0  0  0
  7  5  1  0  0  0  0
  8  7  1  0  0  0  0
  9  8  2  0  0  0  0
 10  8  1  0  0  0  0
 11 29  1  1  0  0  0
 11 12  1  0  0  0  0
 11 10  1  0  0  0  0
 12 27  1  0  0  0  0
 13 12  1  0  0  0  0
 13 15  1  0  0  0  0
 14 13  2  0  0  0  0
 15 16  1  0  0  0  0
 16 33  1  6  0  0  0
 16 17  1  0  0  0  0
 17 18  1  0  0  0  0
 18 20  1  0  0  0  0
 18 19  2  0  0  0  0
 20 52  1  1  0  0  0
 20 21  1  0  0  0  0
 21 22  1  0  0  0  0
 23 21  1  0  0  0  0
 23  1  1  0  0  0  0
 24 23  2  0  0  0  0
 25  2  1  0  0  0  0
 28 17  1  0  0  0  0
 29 30  2  0  0  0  0
 31 29  1  0  0  0  0
 32 31  1  0  0  0  0
 33 34  2  0  0  0  0
 35 33  1  0  0  0  0
 36 35  1  0  0  0  0
 37 38  1  0  0  0  0
 38 39  1  0  0  0  0
 39 47  1  0  0  0  0
 41 40  1  0  0  0  0
 41 42  1  0  0  0  0
 42 43  2  0  0  0  0
 44 42  1  0  0  0  0
 44 45  1  0  0  0  0
 45 46  2  0  0  0  0
 46 50  1  0  0  0  0
 47 45  1  0  0  0  0
 47 51  1  0  0  0  0
 48 41  1  0  0  0  0
 49 44  1  0  0  0  0
 53 52  1  0  0  0  0
 54 53  1  0  0  0  0
 55 54  2  0  0  0  0
 56 57  2  0  0  0  0
 56 55  1  0  0  0  0
 57 58  1  0  0  0  0
 58 53  2  0  0  0  0
M  END
>  <MODEL>
9

>  <REMARK>
 VINA RESULT:      -7.0      3.123      7.318
  Name = CHEMBL197199-4500
  13 active torsions:
  status: ('A' for Active; 'I' for Inactive)
    1  A    between atoms: C_1  and  N_2
    2  A    between atoms: N_8  and  C_9
    3  A    between atoms: C_9  and  C_10
    4  A    between atoms: C_10  and  C_11
    5  A    between atoms: C_11  and  C_12
    6  A    between atoms: C_16  and  C_17
    7  A    between atoms: C_22  and  C_23
    8  A    between atoms: C_23  and  O_25
    9  A    between atoms: CA_30  and  C_31
   10  A    between atoms: C_31  and  OXT_33
   11  A    between atoms: CA_37  and  CB_38
   12  A    between atoms: CB_38  and  CG_39
   13  A    between atoms: N_45  and  C_46
                            x       y       z     vdW  Elec       q    Type
                         _______ _______ _______ _____ _____    ______ ____

>  <TORSDO>
F 10

>  <rfscore_v2>
6.988963352480846

>  <vina_affinity>
-6.4629055583850015

>  <vina_gauss1>
93.66206920267693

>  <vina_gauss2>
1678.8063340086833

>  <vina_repulsion>
5.416579934321739

>  <vina_hydrophobic>
19.15387288277363

>  <vina_hydrogen>
4.907122861867247

>  <vina_intra_gauss1>
122.02150987937607

>  <vina_intra_gauss2>
887.48136728115

>  <vina_intra_repulsion>
11.287549741337923

>  <vina_intra_hydrophobic>
11.685312927352543

>  <vina_intra_hydrogen>
5.078680453752766

>  <vina_num_rotors>
12.0

>  <rfscore_v3>
6.546029989732498

>  <PLEClinear_p5_l1_s65536>
3.764183309950556

>  <nnscore>
5.707226205675309

$$$$
