CHEMBL4068944-8.7
 OpenBabel12202021063D

 29 31  0  0  1  0  0  0  0  0999 V2000
   -0.2110   48.6670   68.1370 C   0  0  2  0  0  3  0  0  0  0  0  0
    1.2880   48.3460   67.8930 C   0  0  0  0  0  2  0  0  0  0  0  0
    1.7970   47.0830   68.5970 C   0  0  0  0  0  2  0  0  0  0  0  0
    1.4830   47.1410   70.0170 N   0  0  1  0  0  0  0  0  0  0  0  0
    2.3980   47.0430   71.0100 C   0  0  1  0  0  3  0  0  0  0  0  0
    2.2970   47.4130   72.2680 N   0  0  0  0  0  0  0  0  0  0  0  0
    3.5020   47.0900   72.8020 C   0  0  0  0  0  0  0  0  0  0  0  0
    3.7160   47.3420   74.0920 N   0  0  0  0  0  0  0  0  0  0  0  0
    4.3530   46.4900   71.9810 N   0  0  0  0  0  2  0  0  0  0  0  0
    3.6410   46.4760   70.8440 N   0  0  0  0  0  0  0  0  0  0  0  0
    0.0900   47.4290   70.3440 C   0  0  0  0  0  2  0  0  0  0  0  0
   -0.3180   48.7480   69.6890 C   0  0  0  0  0  2  0  0  0  0  0  0
    2.8940   47.5020   74.6540 H   0  0  0  0  0  0  0  0  0  0  0  0
    4.4380   46.7970   74.5440 H   0  0  0  0  0  0  0  0  0  0  0  0
    4.0250   46.0430   70.0170 H   0  0  0  0  0  0  0  0  0  0  0  0
   -1.2450   47.7820   67.4730 N   0  0  0  0  0  0  0  0  0  0  0  0
   -2.6250   48.1720   67.9560 C   0  0  0  0  0  2  0  0  0  0  0  0
   -4.5060   46.5880   67.2350 C   0  0  0  0  0  1  0  0  0  0  0  0
   -3.6270   47.0610   68.3920 C   0  0  0  0  0  3  0  0  0  0  0  0
   -2.8740   45.8390   68.9500 C   0  0  0  0  0  1  0  0  0  0  0  0
   -1.2390   47.8990   65.9800 C   0  0  0  0  0  2  0  0  0  0  0  0
   -0.7240   49.1710   65.2500 C   0  0  0  0  0  2  0  0  0  0  0  0
    0.5290   49.0350   64.4160 C   0  0  0  0  0  0  0  0  0  0  0  0
    0.9820   50.0980   63.6250 C   0  0  0  0  0  3  0  0  0  0  0  0
    2.1320   49.9770   62.8460 C   0  0  0  0  0  3  0  0  0  0  0  0
    2.8620   48.7960   62.8750 C   0  0  0  0  0  0  0  0  0  0  0  0
    4.4180   48.6350   61.8150 Br  0  0  0  0  0  0  0  0  0  0  0  0
    2.4560   47.7370   63.6850 C   0  0  0  0  0  3  0  0  0  0  0  0
    1.2960   47.8590   64.4590 C   0  0  0  0  0  3  0  0  0  0  0  0
  1 16  1  1  0  0  0
  1 12  1  0  0  0  0
  2  1  1  0  0  0  0
  2  3  1  0  0  0  0
  4  3  1  6  0  0  0
  4 11  1  0  0  0  0
  4  5  1  0  0  0  0
  5  6  1  1  0  0  0
  6  7  2  0  0  0  0
  7  8  1  0  0  0  0
  8 14  1  0  0  0  0
  8 13  1  0  0  0  0
  9  7  1  0  0  0  0
 10  5  1  0  0  0  0
 10  9  1  0  0  0  0
 12 11  1  0  0  0  0
 15 10  1  0  0  0  0
 16 17  1  0  0  0  0
 17 19  1  0  0  0  0
 18 19  1  0  0  0  0
 19 20  1  0  0  0  0
 21 16  1  0  0  0  0
 22 21  1  0  0  0  0
 23 29  1  0  0  0  0
 23 22  1  0  0  0  0
 24 23  2  0  0  0  0
 25 26  2  0  0  0  0
 25 24  1  0  0  0  0
 26 28  1  0  0  0  0
 27 26  1  0  0  0  0
 28 29  2  0  0  0  0
M  END
>  <MODEL>
1

>  <REMARK>
 VINA RESULT:      -8.8      0.000      0.000
  Name = CHEMBL4068944-8.7
  8 active torsions:
  status: ('A' for Active; 'I' for Inactive)
    1  A    between atoms: C_1  and  C_2
    2  A    between atoms: C_2  and  C_3
    3  A    between atoms: C_2  and  C_4
    4  A    between atoms: C_4  and  N_5
    5  A    between atoms: N_5  and  C_6
    6  A    between atoms: N_5  and  C_15
    7  A    between atoms: C_6  and  C_7
    8  A    between atoms: C_7  and  C_8
                            x       y       z     vdW  Elec       q    Type
                         _______ _______ _______ _____ _____    ______ ____

>  <TORSDO>
F 6

>  <rfscore_v2>
7.459088509101999

>  <vina_affinity>
-8.34726830546976

>  <vina_gauss1>
113.87976587666459

>  <vina_gauss2>
1369.45763551738

>  <vina_repulsion>
3.41329139757148

>  <vina_hydrophobic>
54.67936022773375

>  <vina_hydrogen>
1.8816995675933428

>  <vina_intra_gauss1>
35.77006191457346

>  <vina_intra_gauss2>
200.7622619940023

>  <vina_intra_repulsion>
0.6481799151529442

>  <vina_intra_hydrophobic>
18.910421789548177

>  <vina_intra_hydrogen>
0.0

>  <vina_num_rotors>
6.0

>  <rfscore_v3>
7.437959740259737

>  <PLEClinear_p5_l1_s65536>
4.824660524311934

>  <nnscore>
7.847322423848719

$$$$
CHEMBL4068944-8.7
 OpenBabel12202021063D

 29 31  0  0  1  0  0  0  0  0999 V2000
   -0.6520   46.8010   68.9280 C   0  0  2  0  0  3  0  0  0  0  0  0
   -0.6610   46.7430   70.4790 C   0  0  0  0  0  2  0  0  0  0  0  0
    0.3550   47.6650   71.1620 C   0  0  0  0  0  2  0  0  0  0  0  0
    1.6860   47.4300   70.6220 N   0  0  1  0  0  0  0  0  0  0  0  0
    2.7650   47.0880   71.3640 C   0  0  1  0  0  3  0  0  0  0  0  0
    3.8930   46.5300   70.9780 N   0  0  0  0  0  0  0  0  0  0  0  0
    4.6070   46.4080   72.1250 C   0  0  0  0  0  0  0  0  0  0  0  0
    5.8240   45.8710   72.0640 N   0  0  0  0  0  0  0  0  0  0  0  0
    4.0330   46.8970   73.2160 N   0  0  0  0  0  2  0  0  0  0  0  0
    2.8600   47.3170   72.7180 N   0  0  0  0  0  0  0  0  0  0  0  0
    1.7940   47.4750   69.1670 C   0  0  0  0  0  2  0  0  0  0  0  0
    0.8230   46.4630   68.5600 C   0  0  0  0  0  2  0  0  0  0  0  0
    6.2480   45.8380   71.1490 H   0  0  0  0  0  0  0  0  0  0  0  0
    6.4580   46.1050   72.8160 H   0  0  0  0  0  0  0  0  0  0  0  0
    2.1940   47.7760   73.3220 H   0  0  0  0  0  0  0  0  0  0  0  0
   -1.2070   48.0410   68.2590 N   0  0  0  0  0  0  0  0  0  0  0  0
   -0.7310   48.0950   66.8240 C   0  0  0  0  0  2  0  0  0  0  0  0
   -0.0840   50.5250   67.3170 C   0  0  0  0  0  1  0  0  0  0  0  0
   -0.0800   49.4020   66.2800 C   0  0  0  0  0  3  0  0  0  0  0  0
    1.3790   49.1480   65.8580 C   0  0  0  0  0  1  0  0  0  0  0  0
   -2.7040   48.0720   68.2400 C   0  0  0  0  0  2  0  0  0  0  0  0
   -3.5410   47.1340   67.3270 C   0  0  0  0  0  2  0  0  0  0  0  0
   -4.4330   46.1190   68.0030 C   0  0  0  0  0  0  0  0  0  0  0  0
   -5.6860   45.7970   67.4690 C   0  0  0  0  0  3  0  0  0  0  0  0
   -6.5190   44.8680   68.0920 C   0  0  0  0  0  3  0  0  0  0  0  0
   -6.0890   44.2250   69.2460 C   0  0  0  0  0  0  0  0  0  0  0  0
   -7.2220   42.9690   70.0900 Br  0  0  0  0  0  0  0  0  0  0  0  0
   -4.8300   44.4970   69.7760 C   0  0  0  0  0  3  0  0  0  0  0  0
   -4.0010   45.4360   69.1520 C   0  0  0  0  0  3  0  0  0  0  0  0
  1 16  1  1  0  0  0
  1  2  1  0  0  0  0
  2  3  1  0  0  0  0
  4 11  1  6  0  0  0
  4  3  1  0  0  0  0
  4  5  1  0  0  0  0
  5  6  1  6  0  0  0
  5 10  1  0  0  0  0
  6  7  2  0  0  0  0
  7  9  1  0  0  0  0
  8  7  1  0  0  0  0
  8 14  1  0  0  0  0
 10  9  1  0  0  0  0
 10 15  1  0  0  0  0
 12  1  1  0  0  0  0
 12 11  1  0  0  0  0
 13  8  1  0  0  0  0
 17 16  1  0  0  0  0
 19 17  1  0  0  0  0
 19 18  1  0  0  0  0
 20 19  1  0  0  0  0
 21 16  1  0  0  0  0
 22 23  1  0  0  0  0
 22 21  1  0  0  0  0
 23 29  1  0  0  0  0
 24 23  2  0  0  0  0
 24 25  1  0  0  0  0
 25 26  2  0  0  0  0
 26 28  1  0  0  0  0
 26 27  1  0  0  0  0
 29 28  2  0  0  0  0
M  END
>  <MODEL>
2

>  <REMARK>
 VINA RESULT:      -8.7      3.400      6.126
  Name = CHEMBL4068944-8.7
  8 active torsions:
  status: ('A' for Active; 'I' for Inactive)
    1  A    between atoms: C_1  and  C_2
    2  A    between atoms: C_2  and  C_3
    3  A    between atoms: C_2  and  C_4
    4  A    between atoms: C_4  and  N_5
    5  A    between atoms: N_5  and  C_6
    6  A    between atoms: N_5  and  C_15
    7  A    between atoms: C_6  and  C_7
    8  A    between atoms: C_7  and  C_8
                            x       y       z     vdW  Elec       q    Type
                         _______ _______ _______ _____ _____    ______ ____

>  <TORSDO>
F 6

>  <rfscore_v2>
7.432559229992223

>  <vina_affinity>
-8.573516721467868

>  <vina_gauss1>
116.90130746811758

>  <vina_gauss2>
1394.805264824974

>  <vina_repulsion>
3.153690070065883

>  <vina_hydrophobic>
55.15205478193441

>  <vina_hydrogen>
1.5965961062192169

>  <vina_intra_gauss1>
35.05475162393599

>  <vina_intra_gauss2>
182.258599059419

>  <vina_intra_repulsion>
0.26964154045029187

>  <vina_intra_hydrophobic>
20.118732161907037

>  <vina_intra_hydrogen>
0.0

>  <vina_num_rotors>
6.0

>  <rfscore_v3>
7.507669183261184

>  <PLEClinear_p5_l1_s65536>
3.2892274912319763

>  <nnscore>
7.882167951325526

$$$$
CHEMBL4068944-8.7
 OpenBabel12202021063D

 29 31  0  0  1  0  0  0  0  0999 V2000
    0.5200   49.0070   67.3080 C   0  0  2  0  0  3  0  0  0  0  0  0
   -0.2150   50.2500   66.7380 C   0  0  0  0  0  2  0  0  0  0  0  0
   -0.6830   50.1110   65.2850 C   0  0  0  0  0  2  0  0  0  0  0  0
    0.4300   49.7080   64.4390 N   0  0  1  0  0  0  0  0  0  0  0  0
    0.8520   50.3930   63.3500 C   0  0  1  0  0  3  0  0  0  0  0  0
    2.0110   50.3300   62.7300 N   0  0  0  0  0  0  0  0  0  0  0  0
    1.8920   51.2290   61.7200 C   0  0  0  0  0  0  0  0  0  0  0  0
    2.9200   51.3980   60.8920 N   0  0  0  0  0  0  0  0  0  0  0  0
    0.7130   51.8290   61.6210 N   0  0  0  0  0  2  0  0  0  0  0  0
    0.0670   51.2950   62.6680 N   0  0  0  0  0  0  0  0  0  0  0  0
    1.1760   48.5380   64.8900 C   0  0  0  0  0  2  0  0  0  0  0  0
    1.6920   48.7870   66.3060 C   0  0  0  0  0  2  0  0  0  0  0  0
    3.6140   50.6650   60.8930 H   0  0  0  0  0  0  0  0  0  0  0  0
    2.7060   51.7750   59.9790 H   0  0  0  0  0  0  0  0  0  0  0  0
   -0.8950   51.5440   62.8440 H   0  0  0  0  0  0  0  0  0  0  0  0
   -0.3020   47.7700   67.6070 N   0  0  0  0  0  0  0  0  0  0  0  0
    0.2980   47.0410   68.7880 C   0  0  0  0  0  2  0  0  0  0  0  0
    0.3430   48.3450   70.9940 C   0  0  0  0  0  1  0  0  0  0  0  0
    1.1660   47.8290   69.8150 C   0  0  0  0  0  3  0  0  0  0  0  0
    2.2910   46.9380   70.3730 C   0  0  0  0  0  1  0  0  0  0  0  0
   -1.7270   48.0850   67.9450 C   0  0  0  0  0  2  0  0  0  0  0  0
   -2.9200   47.3810   67.2420 C   0  0  0  0  0  2  0  0  0  0  0  0
   -3.6870   46.3510   68.0380 C   0  0  0  0  0  0  0  0  0  0  0  0
   -3.0960   45.7020   69.1280 C   0  0  0  0  0  3  0  0  0  0  0  0
   -3.7940   44.7440   69.8620 C   0  0  0  0  0  3  0  0  0  0  0  0
   -5.1100   44.4480   69.5300 C   0  0  0  0  0  0  0  0  0  0  0  0
   -6.0520   43.1460   70.5260 Br  0  0  0  0  0  0  0  0  0  0  0  0
   -5.7360   45.1090   68.4760 C   0  0  0  0  0  3  0  0  0  0  0  0
   -5.0290   46.0640   67.7360 C   0  0  0  0  0  3  0  0  0  0  0  0
  1 16  1  6  0  0  0
  2  1  1  0  0  0  0
  3  2  1  0  0  0  0
  4 11  1  1  0  0  0
  4  3  1  0  0  0  0
  5  6  1  6  0  0  0
  5  4  1  0  0  0  0
  7  6  2  0  0  0  0
  8 13  1  0  0  0  0
  8  7  1  0  0  0  0
  9  7  1  0  0  0  0
  9 10  1  0  0  0  0
 10 15  1  0  0  0  0
 10  5  1  0  0  0  0
 11 12  1  0  0  0  0
 12  1  1  0  0  0  0
 14  8  1  0  0  0  0
 16 21  1  0  0  0  0
 16 17  1  0  0  0  0
 17 19  1  0  0  0  0
 19 20  1  0  0  0  0
 19 18  1  0  0  0  0
 22 21  1  0  0  0  0
 22 23  1  0  0  0  0
 23 24  1  0  0  0  0
 24 25  2  0  0  0  0
 26 25  1  0  0  0  0
 26 27  1  0  0  0  0
 28 26  2  0  0  0  0
 29 23  2  0  0  0  0
 29 28  1  0  0  0  0
M  END
>  <MODEL>
3

>  <REMARK>
 VINA RESULT:      -8.6      4.271      8.115
  Name = CHEMBL4068944-8.7
  8 active torsions:
  status: ('A' for Active; 'I' for Inactive)
    1  A    between atoms: C_1  and  C_2
    2  A    between atoms: C_2  and  C_3
    3  A    between atoms: C_2  and  C_4
    4  A    between atoms: C_4  and  N_5
    5  A    between atoms: N_5  and  C_6
    6  A    between atoms: N_5  and  C_15
    7  A    between atoms: C_6  and  C_7
    8  A    between atoms: C_7  and  C_8
                            x       y       z     vdW  Elec       q    Type
                         _______ _______ _______ _____ _____    ______ ____

>  <TORSDO>
F 6

>  <rfscore_v2>
6.807190715340213

>  <vina_affinity>
-8.620847925108995

>  <vina_gauss1>
100.5574200353246

>  <vina_gauss2>
1173.3580167255423

>  <vina_repulsion>
0.40216962529077144

>  <vina_hydrophobic>
66.95773539900702

>  <vina_hydrogen>
0.0

>  <vina_intra_gauss1>
29.458164313296788

>  <vina_intra_gauss2>
186.87478104607328

>  <vina_intra_repulsion>
0.27190889643631133

>  <vina_intra_hydrophobic>
15.283177922229736

>  <vina_intra_hydrogen>
0.0

>  <vina_num_rotors>
6.0

>  <rfscore_v3>
6.5168135555620825

>  <PLEClinear_p5_l1_s65536>
1.6165127389921696

>  <nnscore>
7.214045201686551

$$$$
CHEMBL4068944-8.7
 OpenBabel12202021063D

 29 31  0  0  1  0  0  0  0  0999 V2000
   -1.3530   49.4880   69.1670 C   0  0  2  0  0  3  0  0  0  0  0  0
   -0.0460   49.0530   68.4510 C   0  0  0  0  0  2  0  0  0  0  0  0
    0.4750   47.6670   68.8500 C   0  0  0  0  0  2  0  0  0  0  0  0
    0.5980   47.5770   70.2970 N   0  0  1  0  0  0  0  0  0  0  0  0
    1.7410   47.2640   70.9520 C   0  0  1  0  0  3  0  0  0  0  0  0
    2.0610   47.4810   72.2090 N   0  0  0  0  0  0  0  0  0  0  0  0
    3.3150   46.9760   72.3200 C   0  0  0  0  0  0  0  0  0  0  0  0
    3.9270   47.0400   73.5010 N   0  0  0  0  0  0  0  0  0  0  0  0
    3.8030   46.4030   71.2280 N   0  0  0  0  0  2  0  0  0  0  0  0
    2.7950   46.6020   70.3650 N   0  0  0  0  0  0  0  0  0  0  0  0
   -0.5890   47.9580   71.0570 C   0  0  0  0  0  2  0  0  0  0  0  0
   -0.9910   49.3820   70.6790 C   0  0  0  0  0  2  0  0  0  0  0  0
    3.3320   47.2090   74.2990 H   0  0  0  0  0  0  0  0  0  0  0  0
    4.6700   46.3740   73.6610 H   0  0  0  0  0  0  0  0  0  0  0  0
    2.8610   46.2410   69.4250 H   0  0  0  0  0  0  0  0  0  0  0  0
   -2.6430   48.8010   68.7710 N   0  0  0  0  0  0  0  0  0  0  0  0
   -3.6590   49.8410   68.3540 C   0  0  0  0  0  2  0  0  0  0  0  0
   -3.9860   51.3640   66.3190 C   0  0  0  0  0  1  0  0  0  0  0  0
   -3.1830   51.1160   67.5950 C   0  0  0  0  0  3  0  0  0  0  0  0
   -3.3140   52.3620   68.4910 C   0  0  0  0  0  1  0  0  0  0  0  0
   -2.4700   47.8520   67.6260 C   0  0  0  0  0  2  0  0  0  0  0  0
   -3.6800   47.2000   66.9000 C   0  0  0  0  0  2  0  0  0  0  0  0
   -4.5010   46.1990   67.6790 C   0  0  0  0  0  0  0  0  0  0  0  0
   -4.0060   45.6270   68.8570 C   0  0  0  0  0  3  0  0  0  0  0  0
   -4.7540   44.6960   69.5760 C   0  0  0  0  0  3  0  0  0  0  0  0
   -6.0270   44.3500   69.1380 C   0  0  0  0  0  0  0  0  0  0  0  0
   -7.0360   43.0860   70.1150 Br  0  0  0  0  0  0  0  0  0  0  0  0
   -6.5600   44.9360   67.9920 C   0  0  0  0  0  3  0  0  0  0  0  0
   -5.8020   45.8630   67.2680 C   0  0  0  0  0  3  0  0  0  0  0  0
  1 16  1  1  0  0  0
  1 12  1  0  0  0  0
  2  3  1  0  0  0  0
  2  1  1  0  0  0  0
  4  3  1  6  0  0  0
  4  5  1  0  0  0  0
  4 11  1  0  0  0  0
  5  6  1  1  0  0  0
  6  7  2  0  0  0  0
  7  8  1  0  0  0  0
  8 14  1  0  0  0  0
  8 13  1  0  0  0  0
  9  7  1  0  0  0  0
 10  5  1  0  0  0  0
 10  9  1  0  0  0  0
 12 11  1  0  0  0  0
 15 10  1  0  0  0  0
 17 16  1  0  0  0  0
 18 19  1  0  0  0  0
 19 17  1  0  0  0  0
 19 20  1  0  0  0  0
 21 16  1  0  0  0  0
 22 21  1  0  0  0  0
 22 23  1  0  0  0  0
 23 24  1  0  0  0  0
 24 25  2  0  0  0  0
 26 25  1  0  0  0  0
 26 27  1  0  0  0  0
 28 26  2  0  0  0  0
 29 23  2  0  0  0  0
 29 28  1  0  0  0  0
M  END
>  <MODEL>
4

>  <REMARK>
 VINA RESULT:      -8.5      4.083      5.894
  Name = CHEMBL4068944-8.7
  8 active torsions:
  status: ('A' for Active; 'I' for Inactive)
    1  A    between atoms: C_1  and  C_2
    2  A    between atoms: C_2  and  C_3
    3  A    between atoms: C_2  and  C_4
    4  A    between atoms: C_4  and  N_5
    5  A    between atoms: N_5  and  C_6
    6  A    between atoms: N_5  and  C_15
    7  A    between atoms: C_6  and  C_7
    8  A    between atoms: C_7  and  C_8
                            x       y       z     vdW  Elec       q    Type
                         _______ _______ _______ _____ _____    ______ ____

>  <TORSDO>
F 6

>  <rfscore_v2>
7.40479979603729

>  <vina_affinity>
-8.326752059437329

>  <vina_gauss1>
113.93880876431324

>  <vina_gauss2>
1324.3130261694637

>  <vina_repulsion>
2.969915923589684

>  <vina_hydrophobic>
62.965120469888575

>  <vina_hydrogen>
1.0978175001330357

>  <vina_intra_gauss1>
28.437014452559282

>  <vina_intra_gauss2>
207.23317557650452

>  <vina_intra_repulsion>
0.983466612023924

>  <vina_intra_hydrophobic>
16.12866287617693

>  <vina_intra_hydrogen>
0.0

>  <vina_num_rotors>
6.0

>  <rfscore_v3>
7.2344908196248126

>  <PLEClinear_p5_l1_s65536>
2.842276337530885

>  <nnscore>
7.807878969889707

$$$$
CHEMBL4068944-8.7
 OpenBabel12202021063D

 29 31  0  0  1  0  0  0  0  0999 V2000
   -1.3680   49.0200   67.8720 C   0  0  2  0  0  3  0  0  0  0  0  0
   -0.4450   48.3360   68.9160 C   0  0  0  0  0  2  0  0  0  0  0  0
   -0.4470   46.8040   68.8710 C   0  0  0  0  0  2  0  0  0  0  0  0
   -1.8110   46.3040   68.9490 N   0  0  1  0  0  0  0  0  0  0  0  0
   -2.2570   45.4350   69.8870 C   0  0  1  0  0  3  0  0  0  0  0  0
   -3.4920   45.1860   70.2650 N   0  0  0  0  0  0  0  0  0  0  0  0
   -3.3550   44.2450   71.2330 C   0  0  0  0  0  0  0  0  0  0  0  0
   -4.4520   43.7730   71.8230 N   0  0  0  0  0  0  0  0  0  0  0  0
   -2.1150   43.8370   71.4670 N   0  0  0  0  0  2  0  0  0  0  0  0
   -1.4280   44.6090   70.6120 N   0  0  0  0  0  0  0  0  0  0  0  0
   -2.7520   46.8830   67.9960 C   0  0  0  0  0  2  0  0  0  0  0  0
   -2.7680   48.4010   68.1650 C   0  0  0  0  0  2  0  0  0  0  0  0
   -5.3210   43.9360   71.3360 H   0  0  0  0  0  0  0  0  0  0  0  0
   -4.3740   42.8630   72.2570 H   0  0  0  0  0  0  0  0  0  0  0  0
   -0.4270   44.5050   70.5360 H   0  0  0  0  0  0  0  0  0  0  0  0
   -0.9470   48.9820   66.4170 N   0  0  0  0  0  0  0  0  0  0  0  0
   -1.2700   50.3090   65.7660 C   0  0  0  0  0  2  0  0  0  0  0  0
   -0.3000   52.1780   64.3050 C   0  0  0  0  0  1  0  0  0  0  0  0
   -0.1430   51.3720   65.5940 C   0  0  0  0  0  3  0  0  0  0  0  0
   -0.1420   52.3590   66.7760 C   0  0  0  0  0  1  0  0  0  0  0  0
    0.5190   48.7360   66.2420 C   0  0  0  0  0  2  0  0  0  0  0  0
    1.0660   47.5770   65.3620 C   0  0  0  0  0  2  0  0  0  0  0  0
    1.9740   47.9460   64.2120 C   0  0  0  0  0  0  0  0  0  0  0  0
    2.8570   47.0080   63.6670 C   0  0  0  0  0  3  0  0  0  0  0  0
    3.7050   47.3430   62.6110 C   0  0  0  0  0  3  0  0  0  0  0  0
    3.6530   48.6200   62.0660 C   0  0  0  0  0  0  0  0  0  0  0  0
    4.8050   49.0710   60.6380 Br  0  0  0  0  0  0  0  0  0  0  0  0
    2.7530   49.5610   62.5630 C   0  0  0  0  0  3  0  0  0  0  0  0
    1.9110   49.2220   63.6280 C   0  0  0  0  0  3  0  0  0  0  0  0
  1 16  1  6  0  0  0
  1 12  1  0  0  0  0
  1  2  1  0  0  0  0
  3  2  1  0  0  0  0
  4  3  1  1  0  0  0
  4 11  1  0  0  0  0
  4  5  1  0  0  0  0
  5  6  1  6  0  0  0
  5 10  1  0  0  0  0
  6  7  2  0  0  0  0
  7  9  1  0  0  0  0
  7  8  1  0  0  0  0
  8 14  1  0  0  0  0
 10  9  1  0  0  0  0
 11 12  1  0  0  0  0
 13  8  1  0  0  0  0
 15 10  1  0  0  0  0
 17 16  1  0  0  0  0
 18 19  1  0  0  0  0
 19 17  1  0  0  0  0
 19 20  1  0  0  0  0
 21 16  1  0  0  0  0
 22 21  1  0  0  0  0
 23 22  1  0  0  0  0
 24 23  1  0  0  0  0
 25 24  2  0  0  0  0
 26 28  2  0  0  0  0
 26 25  1  0  0  0  0
 27 26  1  0  0  0  0
 28 29  1  0  0  0  0
 29 23  2  0  0  0  0
M  END
>  <MODEL>
5

>  <REMARK>
 VINA RESULT:      -8.5      2.982      4.579
  Name = CHEMBL4068944-8.7
  8 active torsions:
  status: ('A' for Active; 'I' for Inactive)
    1  A    between atoms: C_1  and  C_2
    2  A    between atoms: C_2  and  C_3
    3  A    between atoms: C_2  and  C_4
    4  A    between atoms: C_4  and  N_5
    5  A    between atoms: N_5  and  C_6
    6  A    between atoms: N_5  and  C_15
    7  A    between atoms: C_6  and  C_7
    8  A    between atoms: C_7  and  C_8
                            x       y       z     vdW  Elec       q    Type
                         _______ _______ _______ _____ _____    ______ ____

>  <TORSDO>
F 6

>  <rfscore_v2>
7.299616242091235

>  <vina_affinity>
-7.985979405719939

>  <vina_gauss1>
81.7730431220865

>  <vina_gauss2>
1323.5866930611435

>  <vina_repulsion>
1.6513505759511529

>  <vina_hydrophobic>
47.44797749056891

>  <vina_hydrogen>
1.3116541391241179

>  <vina_intra_gauss1>
32.6364164463544

>  <vina_intra_gauss2>
185.29439505875146

>  <vina_intra_repulsion>
0.45568219805995985

>  <vina_intra_hydrophobic>
23.47479608869269

>  <vina_intra_hydrogen>
0.0

>  <vina_num_rotors>
6.0

>  <rfscore_v3>
7.075301595293596

>  <PLEClinear_p5_l1_s65536>
2.755420839466278

>  <nnscore>
6.9245429635325

$$$$
CHEMBL4068944-8.7
 OpenBabel12202021063D

 29 31  0  0  1  0  0  0  0  0999 V2000
    0.7190   48.3180   68.7520 C   0  0  2  0  0  3  0  0  0  0  0  0
    0.9430   46.7830   68.8120 C   0  0  0  0  0  2  0  0  0  0  0  0
   -0.3390   45.9440   68.7960 C   0  0  0  0  0  2  0  0  0  0  0  0
   -1.2460   46.3970   69.8400 N   0  0  1  0  0  0  0  0  0  0  0  0
   -1.7450   45.6050   70.8180 C   0  0  1  0  0  3  0  0  0  0  0  0
   -2.2720   45.9490   71.9740 N   0  0  0  0  0  0  0  0  0  0  0  0
   -2.5930   44.7650   72.5530 C   0  0  0  0  0  0  0  0  0  0  0  0
   -3.1620   44.7770   73.7570 N   0  0  0  0  0  0  0  0  0  0  0  0
   -2.3540   43.6840   71.8220 N   0  0  0  0  0  2  0  0  0  0  0  0
   -1.8070   44.2330   70.7280 N   0  0  0  0  0  0  0  0  0  0  0  0
   -1.5260   47.8290   69.8560 C   0  0  0  0  0  2  0  0  0  0  0  0
   -0.2100   48.5970   69.9710 C   0  0  0  0  0  2  0  0  0  0  0  0
   -3.5650   45.6550   74.0470 H   0  0  0  0  0  0  0  0  0  0  0  0
   -3.7020   43.9600   74.0080 H   0  0  0  0  0  0  0  0  0  0  0  0
   -1.5380   43.6460   69.9520 H   0  0  0  0  0  0  0  0  0  0  0  0
    0.2470   48.9170   67.4430 N   0  0  0  0  0  0  0  0  0  0  0  0
   -0.2410   50.3290   67.6830 C   0  0  0  0  0  2  0  0  0  0  0  0
   -2.1860   51.9150   68.2030 C   0  0  0  0  0  1  0  0  0  0  0  0
   -1.7390   50.6760   67.4290 C   0  0  0  0  0  3  0  0  0  0  0  0
   -1.9900   50.9330   65.9310 C   0  0  0  0  0  1  0  0  0  0  0  0
    1.3290   48.9820   66.4090 C   0  0  0  0  0  2  0  0  0  0  0  0
    1.0350   48.8320   64.8910 C   0  0  0  0  0  2  0  0  0  0  0  0
    2.1120   48.2120   64.0310 C   0  0  0  0  0  0  0  0  0  0  0  0
    2.4420   46.8580   64.1610 C   0  0  0  0  0  3  0  0  0  0  0  0
    3.4410   46.2810   63.3780 C   0  0  0  0  0  3  0  0  0  0  0  0
    4.1020   47.0500   62.4290 C   0  0  0  0  0  0  0  0  0  0  0  0
    5.4570   46.2650   61.3720 Br  0  0  0  0  0  0  0  0  0  0  0  0
    3.7650   48.3910   62.2510 C   0  0  0  0  0  3  0  0  0  0  0  0
    2.7670   48.9680   63.0450 C   0  0  0  0  0  3  0  0  0  0  0  0
  1 16  1  6  0  0  0
  1  2  1  0  0  0  0
  1 12  1  0  0  0  0
  3  2  1  0  0  0  0
  4  3  1  1  0  0  0
  4 11  1  0  0  0  0
  4  5  1  0  0  0  0
  5  6  1  6  0  0  0
  6  7  2  0  0  0  0
  7  8  1  0  0  0  0
  8 14  1  0  0  0  0
  8 13  1  0  0  0  0
  9  7  1  0  0  0  0
 10  5  1  0  0  0  0
 10  9  1  0  0  0  0
 11 12  1  0  0  0  0
 15 10  1  0  0  0  0
 16 17  1  0  0  0  0
 19 17  1  0  0  0  0
 19 18  1  0  0  0  0
 20 19  1  0  0  0  0
 21 16  1  0  0  0  0
 22 21  1  0  0  0  0
 23 24  1  0  0  0  0
 23 22  1  0  0  0  0
 25 24  2  0  0  0  0
 26 25  1  0  0  0  0
 27 26  1  0  0  0  0
 28 26  2  0  0  0  0
 28 29  1  0  0  0  0
 29 23  2  0  0  0  0
M  END
>  <MODEL>
6

>  <REMARK>
 VINA RESULT:      -8.3      2.955      3.995
  Name = CHEMBL4068944-8.7
  8 active torsions:
  status: ('A' for Active; 'I' for Inactive)
    1  A    between atoms: C_1  and  C_2
    2  A    between atoms: C_2  and  C_3
    3  A    between atoms: C_2  and  C_4
    4  A    between atoms: C_4  and  N_5
    5  A    between atoms: N_5  and  C_6
    6  A    between atoms: N_5  and  C_15
    7  A    between atoms: C_6  and  C_7
    8  A    between atoms: C_7  and  C_8
                            x       y       z     vdW  Elec       q    Type
                         _______ _______ _______ _____ _____    ______ ____

>  <TORSDO>
F 6

>  <rfscore_v2>
7.322013052891547

>  <vina_affinity>
-8.034252283160574

>  <vina_gauss1>
104.92102828510008

>  <vina_gauss2>
1393.0155219417256

>  <vina_repulsion>
3.640094136740756

>  <vina_hydrophobic>
53.79408277129544

>  <vina_hydrogen>
1.8750134650269774

>  <vina_intra_gauss1>
22.152143862522557

>  <vina_intra_gauss2>
183.46787594762628

>  <vina_intra_repulsion>
0.19077108015905733

>  <vina_intra_hydrophobic>
13.8693684300593

>  <vina_intra_hydrogen>
0.0

>  <vina_num_rotors>
6.0

>  <rfscore_v3>
7.469406993395491

>  <PLEClinear_p5_l1_s65536>
3.4566136567953403

>  <nnscore>
7.631496279555286

$$$$
CHEMBL4068944-8.7
 OpenBabel12202021063D

 29 31  0  0  1  0  0  0  0  0999 V2000
   -1.3400   49.1000   66.3800 C   0  0  2  0  0  3  0  0  0  0  0  0
   -2.5920   48.2010   66.1940 C   0  0  0  0  0  2  0  0  0  0  0  0
   -3.4130   47.9720   67.4670 C   0  0  0  0  0  2  0  0  0  0  0  0
   -2.5540   47.4830   68.5350 N   0  0  1  0  0  0  0  0  0  0  0  0
   -2.7520   46.3260   69.2100 C   0  0  1  0  0  3  0  0  0  0  0  0
   -1.8970   45.6270   69.9250 N   0  0  0  0  0  0  0  0  0  0  0  0
   -2.6230   44.5680   70.3620 C   0  0  0  0  0  0  0  0  0  0  0  0
   -2.0270   43.6600   71.1320 N   0  0  0  0  0  0  0  0  0  0  0  0
   -3.9040   44.5670   70.0170 N   0  0  0  0  0  2  0  0  0  0  0  0
   -3.9680   45.6850   69.2780 N   0  0  0  0  0  0  0  0  0  0  0  0
   -1.3530   48.2720   68.7910 C   0  0  0  0  0  2  0  0  0  0  0  0
   -0.5380   48.3770   67.5030 C   0  0  0  0  0  2  0  0  0  0  0  0
   -1.1620   43.9460   71.5650 H   0  0  0  0  0  0  0  0  0  0  0  0
   -2.6300   43.1020   71.7210 H   0  0  0  0  0  0  0  0  0  0  0  0
   -4.8510   45.9780   68.8870 H   0  0  0  0  0  0  0  0  0  0  0  0
   -1.5550   50.5820   66.6050 N   0  0  0  0  0  0  0  0  0  0  0  0
   -1.1470   50.9400   68.0170 C   0  0  0  0  0  2  0  0  0  0  0  0
   -1.8710   53.2350   68.8980 C   0  0  0  0  0  1  0  0  0  0  0  0
   -2.1370   51.7310   68.9250 C   0  0  0  0  0  3  0  0  0  0  0  0
   -3.5910   51.4950   68.4760 C   0  0  0  0  0  1  0  0  0  0  0  0
   -0.7530   51.4360   65.6720 C   0  0  0  0  0  2  0  0  0  0  0  0
   -0.7210   51.1830   64.1390 C   0  0  0  0  0  2  0  0  0  0  0  0
    0.5410   50.5890   63.5570 C   0  0  0  0  0  0  0  0  0  0  0  0
    1.1800   51.1910   62.4670 C   0  0  0  0  0  3  0  0  0  0  0  0
    2.3390   50.6440   61.9190 C   0  0  0  0  0  3  0  0  0  0  0  0
    2.8930   49.5000   62.4810 C   0  0  0  0  0  0  0  0  0  0  0  0
    4.4630   48.7610   61.7340 Br  0  0  0  0  0  0  0  0  0  0  0  0
    2.3000   48.9050   63.5930 C   0  0  0  0  0  3  0  0  0  0  0  0
    1.1310   49.4530   64.1340 C   0  0  0  0  0  3  0  0  0  0  0  0
  1 16  1  1  0  0  0
  1 12  1  0  0  0  0
  2  1  1  0  0  0  0
  2  3  1  0  0  0  0
  4  3  1  6  0  0  0
  4 11  1  0  0  0  0
  4  5  1  0  0  0  0
  5 10  1  0  0  0  0
  5  6  1  1  0  0  0
  6  7  2  0  0  0  0
  7  8  1  0  0  0  0
  8 13  1  0  0  0  0
  8 14  1  0  0  0  0
  9  7  1  0  0  0  0
 10  9  1  0  0  0  0
 12 11  1  0  0  0  0
 15 10  1  0  0  0  0
 16 17  1  0  0  0  0
 17 19  1  0  0  0  0
 18 19  1  0  0  0  0
 20 19  1  0  0  0  0
 21 16  1  0  0  0  0
 22 21  1  0  0  0  0
 23 29  1  0  0  0  0
 23 22  1  0  0  0  0
 24 23  2  0  0  0  0
 25 24  1  0  0  0  0
 25 26  2  0  0  0  0
 26 28  1  0  0  0  0
 27 26  1  0  0  0  0
 28 29  2  0  0  0  0
M  END
>  <MODEL>
7

>  <REMARK>
 VINA RESULT:      -8.2      3.213      4.550
  Name = CHEMBL4068944-8.7
  8 active torsions:
  status: ('A' for Active; 'I' for Inactive)
    1  A    between atoms: C_1  and  C_2
    2  A    between atoms: C_2  and  C_3
    3  A    between atoms: C_2  and  C_4
    4  A    between atoms: C_4  and  N_5
    5  A    between atoms: N_5  and  C_6
    6  A    between atoms: N_5  and  C_15
    7  A    between atoms: C_6  and  C_7
    8  A    between atoms: C_7  and  C_8
                            x       y       z     vdW  Elec       q    Type
                         _______ _______ _______ _____ _____    ______ ____

>  <TORSDO>
F 6

>  <rfscore_v2>
7.055492277222771

>  <vina_affinity>
-8.62626180624752

>  <vina_gauss1>
87.8825934342882

>  <vina_gauss2>
1260.1825445245695

>  <vina_repulsion>
1.1023007602579034

>  <vina_hydrophobic>
57.9433098846455

>  <vina_hydrogen>
1.5588414069821832

>  <vina_intra_gauss1>
39.120277504978034

>  <vina_intra_gauss2>
189.3410029882187

>  <vina_intra_repulsion>
2.6285014496551873

>  <vina_intra_hydrophobic>
20.436399486760315

>  <vina_intra_hydrogen>
0.0

>  <vina_num_rotors>
6.0

>  <rfscore_v3>
7.035743879398381

>  <PLEClinear_p5_l1_s65536>
2.617349717548864

>  <nnscore>
7.175838752074222

$$$$
CHEMBL4068944-8.7
 OpenBabel12202021063D

 29 31  0  0  1  0  0  0  0  0999 V2000
   -1.1580   50.4200   67.8780 C   0  0  2  0  0  3  0  0  0  0  0  0
   -2.4300   50.8140   67.0810 C   0  0  0  0  0  2  0  0  0  0  0  0
   -2.3960   50.4470   65.5930 C   0  0  0  0  0  2  0  0  0  0  0  0
   -1.1890   50.9760   64.9760 N   0  0  1  0  0  0  0  0  0  0  0  0
   -1.1750   51.8040   63.9050 C   0  0  1  0  0  3  0  0  0  0  0  0
   -0.2130   52.5970   63.4850 N   0  0  0  0  0  0  0  0  0  0  0  0
   -0.7380   53.1960   62.3860 C   0  0  0  0  0  0  0  0  0  0  0  0
    0.0100   54.0720   61.7180 N   0  0  0  0  0  0  0  0  0  0  0  0
   -1.9570   52.8020   62.0440 N   0  0  0  0  0  2  0  0  0  0  0  0
   -2.2250   51.9250   63.0240 N   0  0  0  0  0  0  0  0  0  0  0  0
    0.0620   50.6460   65.6510 C   0  0  0  0  0  2  0  0  0  0  0  0
   -0.0090   51.1270   67.1000 C   0  0  0  0  0  2  0  0  0  0  0  0
    1.0020   54.0360   61.9010 H   0  0  0  0  0  0  0  0  0  0  0  0
   -0.2360   54.2290   60.7500 H   0  0  0  0  0  0  0  0  0  0  0  0
   -3.0990   51.4210   63.0200 H   0  0  0  0  0  0  0  0  0  0  0  0
   -0.9240   48.9500   68.1620 N   0  0  0  0  0  0  0  0  0  0  0  0
    0.0890   48.8100   69.2760 C   0  0  0  0  0  2  0  0  0  0  0  0
    1.5330   46.9060   68.3480 C   0  0  0  0  0  1  0  0  0  0  0  0
    0.7410   47.4200   69.5500 C   0  0  0  0  0  3  0  0  0  0  0  0
    1.6980   47.4960   70.7540 C   0  0  0  0  0  1  0  0  0  0  0  0
   -2.1690   48.2350   68.5890 C   0  0  0  0  0  2  0  0  0  0  0  0
   -2.8210   47.1190   67.7250 C   0  0  0  0  0  2  0  0  0  0  0  0
   -3.6310   46.0670   68.4450 C   0  0  0  0  0  0  0  0  0  0  0  0
   -3.0990   45.3770   69.5410 C   0  0  0  0  0  3  0  0  0  0  0  0
   -3.8370   44.3980   70.2040 C   0  0  0  0  0  3  0  0  0  0  0  0
   -5.1350   44.1200   69.7950 C   0  0  0  0  0  0  0  0  0  0  0  0
   -6.1310   42.7900   70.6950 Br  0  0  0  0  0  0  0  0  0  0  0  0
   -5.7040   44.8200   68.7330 C   0  0  0  0  0  3  0  0  0  0  0  0
   -4.9560   45.7960   68.0650 C   0  0  0  0  0  3  0  0  0  0  0  0
  1 16  1  6  0  0  0
  2  1  1  0  0  0  0
  3  2  1  0  0  0  0
  4  3  1  1  0  0  0
  4 11  1  0  0  0  0
  5  6  1  6  0  0  0
  5  4  1  0  0  0  0
  7  6  2  0  0  0  0
  8 13  1  0  0  0  0
  8  7  1  0  0  0  0
  9  7  1  0  0  0  0
  9 10  1  0  0  0  0
 10  5  1  0  0  0  0
 11 12  1  0  0  0  0
 12  1  1  0  0  0  0
 14  8  1  0  0  0  0
 15 10  1  0  0  0  0
 16 21  1  0  0  0  0
 16 17  1  0  0  0  0
 17 19  1  0  0  0  0
 18 19  1  0  0  0  0
 19 20  1  0  0  0  0
 22 23  1  0  0  0  0
 22 21  1  0  0  0  0
 23 24  1  0  0  0  0
 24 25  2  0  0  0  0
 26 25  1  0  0  0  0
 26 27  1  0  0  0  0
 28 26  2  0  0  0  0
 29 23  2  0  0  0  0
 29 28  1  0  0  0  0
M  END
>  <MODEL>
8

>  <REMARK>
 VINA RESULT:      -8.1      4.496      8.552
  Name = CHEMBL4068944-8.7
  8 active torsions:
  status: ('A' for Active; 'I' for Inactive)
    1  A    between atoms: C_1  and  C_2
    2  A    between atoms: C_2  and  C_3
    3  A    between atoms: C_2  and  C_4
    4  A    between atoms: C_4  and  N_5
    5  A    between atoms: N_5  and  C_6
    6  A    between atoms: N_5  and  C_15
    7  A    between atoms: C_6  and  C_7
    8  A    between atoms: C_7  and  C_8
                            x       y       z     vdW  Elec       q    Type
                         _______ _______ _______ _____ _____    ______ ____

>  <TORSDO>
F 6

>  <rfscore_v2>
6.818988294094795

>  <vina_affinity>
-8.021210318973955

>  <vina_gauss1>
88.12175920648038

>  <vina_gauss2>
1177.0369035057015

>  <vina_repulsion>
0.4725302640609142

>  <vina_hydrophobic>
57.63349039614988

>  <vina_hydrogen>
0.0

>  <vina_intra_gauss1>
22.270001191392296

>  <vina_intra_gauss2>
184.1097119569837

>  <vina_intra_repulsion>
0.011197780506408139

>  <vina_intra_hydrophobic>
15.078756001721558

>  <vina_intra_hydrogen>
0.0

>  <vina_num_rotors>
6.0

>  <rfscore_v3>
6.531373597402596

>  <PLEClinear_p5_l1_s65536>
0.9414560980458608

>  <nnscore>
6.468514127665242

$$$$
CHEMBL4068944-8.7
 OpenBabel12202021063D

 29 31  0  0  1  0  0  0  0  0999 V2000
   -1.5530   48.0460   66.6020 C   0  0  2  0  0  3  0  0  0  0  0  0
   -2.1210   48.8630   65.4100 C   0  0  0  0  0  2  0  0  0  0  0  0
   -3.0560   50.0110   65.8050 C   0  0  0  0  0  2  0  0  0  0  0  0
   -4.1150   49.5180   66.6720 N   0  0  1  0  0  0  0  0  0  0  0  0
   -5.4390   49.6500   66.4180 C   0  0  1  0  0  3  0  0  0  0  0  0
   -6.4500   48.9740   66.9200 N   0  0  0  0  0  0  0  0  0  0  0  0
   -7.5380   49.5130   66.3140 C   0  0  0  0  0  0  0  0  0  0  0  0
   -8.7420   49.0350   66.6220 N   0  0  0  0  0  0  0  0  0  0  0  0
   -7.2950   50.5260   65.4930 N   0  0  0  0  0  2  0  0  0  0  0  0
   -5.9570   50.5940   65.5620 N   0  0  0  0  0  0  0  0  0  0  0  0
   -3.6760   48.7440   67.8290 C   0  0  0  0  0  2  0  0  0  0  0  0
   -2.8300   47.5640   67.3520 C   0  0  0  0  0  2  0  0  0  0  0  0
   -8.8000   48.4980   67.4740 H   0  0  0  0  0  0  0  0  0  0  0  0
   -9.5270   49.6500   66.4550 H   0  0  0  0  0  0  0  0  0  0  0  0
   -5.4650   51.3110   65.0500 H   0  0  0  0  0  0  0  0  0  0  0  0
   -0.5080   48.7020   67.4800 N   0  0  0  0  0  0  0  0  0  0  0  0
   -0.2970   47.8640   68.7210 C   0  0  0  0  0  2  0  0  0  0  0  0
    0.7330   48.1180   71.0540 C   0  0  0  0  0  1  0  0  0  0  0  0
    1.0090   48.0420   69.5540 C   0  0  0  0  0  3  0  0  0  0  0  0
    1.9760   46.8680   69.3060 C   0  0  0  0  0  1  0  0  0  0  0  0
    0.8180   48.8460   66.7990 C   0  0  0  0  0  2  0  0  0  0  0  0
    1.2080   47.9960   65.5580 C   0  0  0  0  0  2  0  0  0  0  0  0
    1.7210   48.7340   64.3440 C   0  0  0  0  0  0  0  0  0  0  0  0
    2.8250   48.2560   63.6280 C   0  0  0  0  0  3  0  0  0  0  0  0
    3.3100   48.9350   62.5110 C   0  0  0  0  0  3  0  0  0  0  0  0
    2.6720   50.0910   62.0780 C   0  0  0  0  0  0  0  0  0  0  0  0
    3.3340   51.0110   60.5660 Br  0  0  0  0  0  0  0  0  0  0  0  0
    1.5460   50.5660   62.7480 C   0  0  0  0  0  3  0  0  0  0  0  0
    1.0680   49.8850   63.8730 C   0  0  0  0  0  3  0  0  0  0  0  0
  1 12  1  0  0  0  0
  1 16  1  1  0  0  0
  2  3  1  0  0  0  0
  2  1  1  0  0  0  0
  4  3  1  6  0  0  0
  4 11  1  0  0  0  0
  5  4  1  0  0  0  0
  5  6  1  1  0  0  0
  7  8  1  0  0  0  0
  7  6  2  0  0  0  0
  8 13  1  0  0  0  0
  9 10  1  0  0  0  0
  9  7  1  0  0  0  0
 10  5  1  0  0  0  0
 12 11  1  0  0  0  0
 14  8  1  0  0  0  0
 15 10  1  0  0  0  0
 16 17  1  0  0  0  0
 17 19  1  0  0  0  0
 19 18  1  0  0  0  0
 20 19  1  0  0  0  0
 21 16  1  0  0  0  0
 22 21  1  0  0  0  0
 23 22  1  0  0  0  0
 24 23  2  0  0  0  0
 25 24  1  0  0  0  0
 26 25  2  0  0  0  0
 26 28  1  0  0  0  0
 27 26  1  0  0  0  0
 28 29  2  0  0  0  0
 29 23  1  0  0  0  0
M  END
>  <MODEL>
9

>  <REMARK>
 VINA RESULT:      -7.9      3.055      6.808
  Name = CHEMBL4068944-8.7
  8 active torsions:
  status: ('A' for Active; 'I' for Inactive)
    1  A    between atoms: C_1  and  C_2
    2  A    between atoms: C_2  and  C_3
    3  A    between atoms: C_2  and  C_4
    4  A    between atoms: C_4  and  N_5
    5  A    between atoms: N_5  and  C_6
    6  A    between atoms: N_5  and  C_15
    7  A    between atoms: C_6  and  C_7
    8  A    between atoms: C_7  and  C_8
                            x       y       z     vdW  Elec       q    Type
                         _______ _______ _______ _____ _____    ______ ____

>  <TORSDO>
F 6

>  <rfscore_v2>
6.820349598901099

>  <vina_affinity>
-8.112182312857739

>  <vina_gauss1>
76.61966398896936

>  <vina_gauss2>
1208.022724738798

>  <vina_repulsion>
0.3872477091460721

>  <vina_hydrophobic>
66.20481717076919

>  <vina_hydrogen>
0.0

>  <vina_intra_gauss1>
26.47095757107172

>  <vina_intra_gauss2>
192.86536061200934

>  <vina_intra_repulsion>
0.6832234763218148

>  <vina_intra_hydrophobic>
16.23816603465749

>  <vina_intra_hydrogen>
0.0

>  <vina_num_rotors>
6.0

>  <rfscore_v3>
6.553717238261737

>  <PLEClinear_p5_l1_s65536>
2.5124541536038736

>  <nnscore>
6.963390931341401

$$$$
