CHEMBL4103842-970
 OpenBabel12202021063D

 27 29  0  0  1  0  0  0  0  0999 V2000
   -1.0460   48.0640   69.0030 C   0  0  2  0  0  3  0  0  0  0  0  0
   -0.6690   47.8000   70.4860 C   0  0  0  0  0  2  0  0  0  0  0  0
   -0.6240   46.3190   70.8780 C   0  0  0  0  0  2  0  0  0  0  0  0
   -1.8160   45.6130   70.4040 N   0  0  1  0  0  0  0  0  0  0  0  0
   -2.6000   44.9430   71.2850 C   0  0  2  0  0  3  0  0  0  0  0  0
   -2.5780   44.9600   72.5980 N   0  0  0  0  0  0  0  0  0  0  0  0
   -3.5490   44.0780   72.9490 C   0  0  0  0  0  0  0  0  0  0  0  0
   -3.7790   43.8620   74.2430 N   0  0  0  0  0  0  0  0  0  0  0  0
   -4.2110   43.5180   71.9460 N   0  0  0  0  0  2  0  0  0  0  0  0
   -3.5740   44.0620   70.8940 N   0  0  0  0  0  0  0  0  0  0  0  0
   -2.1630   45.8000   69.0060 C   0  0  0  0  0  2  0  0  0  0  0  0
   -2.3620   47.2900   68.7550 C   0  0  0  0  0  2  0  0  0  0  0  0
   -3.4370   44.5650   74.8820 H   0  0  0  0  0  0  0  0  0  0  0  0
   -4.6660   43.4510   74.4860 H   0  0  0  0  0  0  0  0  0  0  0  0
   -3.8310   43.7720   69.9630 H   0  0  0  0  0  0  0  0  0  0  0  0
   -0.0090   47.7340   67.9720 N   0  0  0  0  0  0  0  0  0  0  0  0
    1.3420   47.6690   68.5480 C   0  0  0  0  0  1  0  0  0  0  0  0
   -0.0320   48.7410   66.8710 C   0  0  0  0  0  2  0  0  0  0  0  0
   -0.3060   48.1820   65.4660 C   0  0  0  0  0  2  0  0  0  0  0  0
    3.1690   48.5400   62.9090 C   0  0  0  0  0  0  0  0  0  0  0  0
    2.9040   47.3440   63.5880 C   0  0  0  0  0  3  0  0  0  0  0  0
    1.7900   47.2340   64.4210 C   0  0  0  0  0  3  0  0  0  0  0  0
    0.9050   48.3100   64.5690 C   0  0  0  0  0  0  0  0  0  0  0  0
    1.1630   49.5020   63.8810 C   0  0  0  0  0  3  0  0  0  0  0  0
    2.2800   49.6130   63.0500 C   0  0  0  0  0  3  0  0  0  0  0  0
    5.0900   47.3240   61.8480 C   0  0  0  0  0  1  0  0  0  0  0  0
    4.3880   48.6590   62.0330 C   0  0  0  0  0  2  0  0  0  0  0  0
  1 16  1  6  0  0  0
  1  2  1  0  0  0  0
  2  3  1  0  0  0  0
  4 11  1  1  0  0  0
  4  3  1  0  0  0  0
  4  5  1  0  0  0  0
  5  6  1  1  0  0  0
  6  7  2  0  0  0  0
  7  8  1  0  0  0  0
  8 14  1  0  0  0  0
  8 13  1  0  0  0  0
  9  7  1  0  0  0  0
 10  5  1  0  0  0  0
 10  9  1  0  0  0  0
 12  1  1  0  0  0  0
 12 11  1  0  0  0  0
 15 10  1  0  0  0  0
 16 17  1  0  0  0  0
 18 16  1  0  0  0  0
 19 18  1  0  0  0  0
 20 25  2  0  0  0  0
 20 21  1  0  0  0  0
 21 22  2  0  0  0  0
 22 23  1  0  0  0  0
 23 19  1  0  0  0  0
 24 23  2  0  0  0  0
 25 24  1  0  0  0  0
 26 27  1  0  0  0  0
 27 20  1  0  0  0  0
M  END
>  <MODEL>
1

>  <REMARK>
 VINA RESULT:      -8.9      0.000      0.000
  Name = CHEMBL4103842-970
  7 active torsions:
  status: ('A' for Active; 'I' for Inactive)
    1  A    between atoms: C_1  and  C_2
    2  A    between atoms: C_2  and  C_3
    3  A    between atoms: C_6  and  C_7
    4  A    between atoms: C_7  and  C_8
    5  A    between atoms: C_8  and  N_9
    6  A    between atoms: N_9  and  C_10
    7  A    between atoms: N_9  and  C_11
                            x       y       z     vdW  Elec       q    Type
                         _______ _______ _______ _____ _____    ______ ____

>  <TORSDO>
F 5

>  <rfscore_v2>
7.24184925796425

>  <vina_affinity>
-8.173578785253545

>  <vina_gauss1>
83.49438349561291

>  <vina_gauss2>
1282.899482479562

>  <vina_repulsion>
1.6944642881527971

>  <vina_hydrophobic>
51.758353058524406

>  <vina_hydrogen>
1.8006394659852183

>  <vina_intra_gauss1>
20.853874842339657

>  <vina_intra_gauss2>
131.1654235469179

>  <vina_intra_repulsion>
0.43403116266102937

>  <vina_intra_hydrophobic>
9.566218863778193

>  <vina_intra_hydrogen>
0.0

>  <vina_num_rotors>
6.0

>  <rfscore_v3>
7.028274997169503

>  <PLEClinear_p5_l1_s65536>
2.497103635774573

>  <nnscore>
6.691853005808417

$$$$
CHEMBL4103842-970
 OpenBabel12202021063D

 27 29  0  0  1  0  0  0  0  0999 V2000
   -3.4520   46.6620   67.9640 C   0  0  2  0  0  3  0  0  0  0  0  0
   -4.9060   46.1870   67.6960 C   0  0  0  0  0  2  0  0  0  0  0  0
   -5.7020   45.8320   68.9560 C   0  0  0  0  0  2  0  0  0  0  0  0
   -4.9220   44.9710   69.8470 N   0  0  1  0  0  0  0  0  0  0  0  0
   -5.4150   43.7680   70.2280 C   0  0  2  0  0  3  0  0  0  0  0  0
   -6.4600   43.1160   69.7730 N   0  0  0  0  0  0  0  0  0  0  0  0
   -6.5030   41.9970   70.5420 C   0  0  0  0  0  0  0  0  0  0  0  0
   -7.4730   41.1100   70.3260 N   0  0  0  0  0  0  0  0  0  0  0  0
   -5.5360   41.8760   71.4410 N   0  0  0  0  0  2  0  0  0  0  0  0
   -4.8690   43.0270   71.2440 N   0  0  0  0  0  0  0  0  0  0  0  0
   -3.5740   45.4180   70.1570 C   0  0  0  0  0  2  0  0  0  0  0  0
   -2.8060   45.5720   68.8500 C   0  0  0  0  0  2  0  0  0  0  0  0
   -7.9390   41.1640   69.4320 H   0  0  0  0  0  0  0  0  0  0  0  0
   -7.3270   40.1790   70.6840 H   0  0  0  0  0  0  0  0  0  0  0  0
   -4.0880   43.2490   71.8420 H   0  0  0  0  0  0  0  0  0  0  0  0
   -3.2840   48.0280   68.5580 N   0  0  0  0  0  0  0  0  0  0  0  0
   -4.4390   48.8970   68.2810 C   0  0  0  0  0  1  0  0  0  0  0  0
   -2.0420   48.6720   68.0400 C   0  0  0  0  0  2  0  0  0  0  0  0
   -1.2330   49.4760   69.0700 C   0  0  0  0  0  2  0  0  0  0  0  0
    2.1210   47.2120   70.6090 C   0  0  0  0  0  0  0  0  0  0  0  0
    1.2010   47.8070   71.4820 C   0  0  0  0  0  3  0  0  0  0  0  0
    0.1270   48.5460   70.9850 C   0  0  0  0  0  3  0  0  0  0  0  0
   -0.0620   48.6810   69.6040 C   0  0  0  0  0  0  0  0  0  0  0  0
    0.8510   48.0780   68.7300 C   0  0  0  0  0  3  0  0  0  0  0  0
    1.9270   47.3400   69.2280 C   0  0  0  0  0  3  0  0  0  0  0  0
    3.7050   46.9260   72.5340 C   0  0  0  0  0  1  0  0  0  0  0  0
    3.2920   46.4390   71.1540 C   0  0  0  0  0  2  0  0  0  0  0  0
  1 16  1  1  0  0  0
  1 12  1  0  0  0  0
  2  1  1  0  0  0  0
  2  3  1  0  0  0  0
  4  3  1  6  0  0  0
  4 11  1  0  0  0  0
  4  5  1  0  0  0  0
  5  6  1  1  0  0  0
  5 10  1  0  0  0  0
  6  7  2  0  0  0  0
  7  9  1  0  0  0  0
  8  7  1  0  0  0  0
  8 14  1  0  0  0  0
 10  9  1  0  0  0  0
 10 15  1  0  0  0  0
 12 11  1  0  0  0  0
 13  8  1  0  0  0  0
 17 16  1  0  0  0  0
 18 16  1  0  0  0  0
 18 19  1  0  0  0  0
 19 23  1  0  0  0  0
 20 27  1  0  0  0  0
 20 21  1  0  0  0  0
 22 21  2  0  0  0  0
 23 22  1  0  0  0  0
 24 25  1  0  0  0  0
 24 23  2  0  0  0  0
 25 20  2  0  0  0  0
 27 26  1  0  0  0  0
M  END
>  <MODEL>
2

>  <REMARK>
 VINA RESULT:      -8.6      3.970      5.504
  Name = CHEMBL4103842-970
  7 active torsions:
  status: ('A' for Active; 'I' for Inactive)
    1  A    between atoms: C_1  and  C_2
    2  A    between atoms: C_2  and  C_3
    3  A    between atoms: C_6  and  C_7
    4  A    between atoms: C_7  and  C_8
    5  A    between atoms: C_8  and  N_9
    6  A    between atoms: N_9  and  C_10
    7  A    between atoms: N_9  and  C_11
                            x       y       z     vdW  Elec       q    Type
                         _______ _______ _______ _____ _____    ______ ____

>  <TORSDO>
F 5

>  <rfscore_v2>
6.973895109668112

>  <vina_affinity>
-7.652339342844106

>  <vina_gauss1>
97.23366190660374

>  <vina_gauss2>
1240.5275237815238

>  <vina_repulsion>
2.9858601388527486

>  <vina_hydrophobic>
69.04299769882311

>  <vina_hydrogen>
0.9546564957448898

>  <vina_intra_gauss1>
20.357168822356

>  <vina_intra_gauss2>
158.3782531436531

>  <vina_intra_repulsion>
0.3476976243929388

>  <vina_intra_hydrophobic>
14.94135950461426

>  <vina_intra_hydrogen>
0.0

>  <vina_num_rotors>
6.0

>  <rfscore_v3>
6.97430202525905

>  <PLEClinear_p5_l1_s65536>
0.9617345621006436

>  <nnscore>
6.612697184830749

$$$$
CHEMBL4103842-970
 OpenBabel12202021063D

 27 29  0  0  1  0  0  0  0  0999 V2000
   -1.0690   48.4440   66.6040 C   0  0  2  0  0  3  0  0  0  0  0  0
   -2.5430   48.0290   66.8560 C   0  0  0  0  0  2  0  0  0  0  0  0
   -2.9080   47.8360   68.3320 C   0  0  0  0  0  2  0  0  0  0  0  0
   -1.9060   47.0190   69.0200 N   0  0  1  0  0  0  0  0  0  0  0  0
   -2.2820   45.8860   69.6610 C   0  0  2  0  0  3  0  0  0  0  0  0
   -3.4330   45.2540   69.6260 N   0  0  0  0  0  0  0  0  0  0  0  0
   -3.2560   44.2150   70.4830 C   0  0  0  0  0  0  0  0  0  0  0  0
   -4.2670   43.3680   70.6770 N   0  0  0  0  0  0  0  0  0  0  0  0
   -2.0580   44.1230   71.0430 N   0  0  0  0  0  2  0  0  0  0  0  0
   -1.4600   45.2130   70.5260 N   0  0  0  0  0  0  0  0  0  0  0  0
   -0.5190   47.4170   68.8440 C   0  0  0  0  0  2  0  0  0  0  0  0
   -0.2010   47.4060   67.3540 C   0  0  0  0  0  2  0  0  0  0  0  0
   -4.9900   43.3650   69.9730 H   0  0  0  0  0  0  0  0  0  0  0  0
   -4.0370   42.4670   71.0660 H   0  0  0  0  0  0  0  0  0  0  0  0
   -0.5250   45.4450   70.8230 H   0  0  0  0  0  0  0  0  0  0  0  0
   -0.6890   49.8480   66.9690 N   0  0  0  0  0  0  0  0  0  0  0  0
   -1.8170   50.7800   66.8270 C   0  0  0  0  0  1  0  0  0  0  0  0
    0.4510   50.3130   66.1270 C   0  0  0  0  0  2  0  0  0  0  0  0
    0.2150   50.2730   64.6090 C   0  0  0  0  0  2  0  0  0  0  0  0
    3.3950   48.1930   62.5360 C   0  0  0  0  0  0  0  0  0  0  0  0
    3.0080   49.4790   62.1400 C   0  0  0  0  0  3  0  0  0  0  0  0
    1.9750   50.1440   62.8020 C   0  0  0  0  0  3  0  0  0  0  0  0
    1.3280   49.5450   63.8900 C   0  0  0  0  0  0  0  0  0  0  0  0
    1.7220   48.2630   64.2940 C   0  0  0  0  0  3  0  0  0  0  0  0
    2.7540   47.5970   63.6290 C   0  0  0  0  0  3  0  0  0  0  0  0
    4.4390   45.9700   62.0250 C   0  0  0  0  0  1  0  0  0  0  0  0
    4.4920   47.4720   61.7990 C   0  0  0  0  0  2  0  0  0  0  0  0
  1  2  1  0  0  0  0
  1 16  1  1  0  0  0
  1 12  1  0  0  0  0
  2  3  1  0  0  0  0
  4  3  1  6  0  0  0
  4  5  1  0  0  0  0
  5  6  1  1  0  0  0
  5 10  1  0  0  0  0
  6  7  2  0  0  0  0
  7  8  1  0  0  0  0
  7  9  1  0  0  0  0
  8 14  1  0  0  0  0
 10 15  1  0  0  0  0
 10  9  1  0  0  0  0
 11  4  1  0  0  0  0
 12 11  1  0  0  0  0
 13  8  1  0  0  0  0
 17 16  1  0  0  0  0
 18 16  1  0  0  0  0
 19 18  1  0  0  0  0
 20 25  1  0  0  0  0
 21 20  2  0  0  0  0
 21 22  1  0  0  0  0
 22 23  2  0  0  0  0
 23 24  1  0  0  0  0
 23 19  1  0  0  0  0
 25 24  2  0  0  0  0
 27 26  1  0  0  0  0
 27 20  1  0  0  0  0
M  END
>  <MODEL>
3

>  <REMARK>
 VINA RESULT:      -8.5      1.487      2.621
  Name = CHEMBL4103842-970
  7 active torsions:
  status: ('A' for Active; 'I' for Inactive)
    1  A    between atoms: C_1  and  C_2
    2  A    between atoms: C_2  and  C_3
    3  A    between atoms: C_6  and  C_7
    4  A    between atoms: C_7  and  C_8
    5  A    between atoms: C_8  and  N_9
    6  A    between atoms: N_9  and  C_10
    7  A    between atoms: N_9  and  C_11
                            x       y       z     vdW  Elec       q    Type
                         _______ _______ _______ _____ _____    ______ ____

>  <TORSDO>
F 5

>  <rfscore_v2>
7.018894180042177

>  <vina_affinity>
-7.701067083463283

>  <vina_gauss1>
74.87636254645766

>  <vina_gauss2>
1210.2245447707564

>  <vina_repulsion>
1.3191377874109314

>  <vina_hydrophobic>
51.52729457951442

>  <vina_hydrogen>
1.3513665651995308

>  <vina_intra_gauss1>
26.243215134886842

>  <vina_intra_gauss2>
146.53691329883105

>  <vina_intra_repulsion>
0.2772898295475079

>  <vina_intra_hydrophobic>
17.10498439631212

>  <vina_intra_hydrogen>
0.0

>  <vina_num_rotors>
6.0

>  <rfscore_v3>
6.886632928349435

>  <PLEClinear_p5_l1_s65536>
2.232393384150973

>  <nnscore>
6.4183216257078275

$$$$
CHEMBL4103842-970
 OpenBabel12202021063D

 27 29  0  0  1  0  0  0  0  0999 V2000
   -4.2880   47.9630   66.3510 C   0  0  2  0  0  3  0  0  0  0  0  0
   -5.6370   47.2180   66.5400 C   0  0  0  0  0  2  0  0  0  0  0  0
   -6.0230   46.9590   68.0000 C   0  0  0  0  0  2  0  0  0  0  0  0
   -4.8950   46.4040   68.7520 N   0  0  1  0  0  0  0  0  0  0  0  0
   -5.0310   45.2200   69.3980 C   0  0  2  0  0  3  0  0  0  0  0  0
   -6.0000   44.3370   69.3210 N   0  0  0  0  0  0  0  0  0  0  0  0
   -5.6310   43.3750   70.2070 C   0  0  0  0  0  0  0  0  0  0  0  0
   -6.4260   42.3180   70.3700 N   0  0  0  0  0  0  0  0  0  0  0  0
   -4.4750   43.5710   70.8250 N   0  0  0  0  0  2  0  0  0  0  0  0
   -4.1200   44.7640   70.3150 N   0  0  0  0  0  0  0  0  0  0  0  0
   -3.6310   47.1120   68.6350 C   0  0  0  0  0  2  0  0  0  0  0  0
   -3.2430   47.1610   67.1620 C   0  0  0  0  0  2  0  0  0  0  0  0
   -7.0910   42.1410   69.6320 H   0  0  0  0  0  0  0  0  0  0  0  0
   -6.0140   41.4990   70.7880 H   0  0  0  0  0  0  0  0  0  0  0  0
   -3.2810   45.2100   70.6520 H   0  0  0  0  0  0  0  0  0  0  0  0
   -4.2640   49.4200   66.7040 N   0  0  0  0  0  0  0  0  0  0  0  0
   -5.3710   50.1580   66.0790 C   0  0  0  0  0  1  0  0  0  0  0  0
   -2.9650   50.0310   66.2980 C   0  0  0  0  0  2  0  0  0  0  0  0
   -2.2910   50.9210   67.3550 C   0  0  0  0  0  2  0  0  0  0  0  0
    0.1010   48.6070   70.1230 C   0  0  0  0  0  0  0  0  0  0  0  0
   -0.9870   49.3620   70.5790 C   0  0  0  0  0  3  0  0  0  0  0  0
   -1.7500   50.1160   69.6880 C   0  0  0  0  0  3  0  0  0  0  0  0
   -1.4560   50.1080   68.3190 C   0  0  0  0  0  0  0  0  0  0  0  0
   -0.3750   49.3450   67.8600 C   0  0  0  0  0  3  0  0  0  0  0  0
    0.3910   48.5920   68.7530 C   0  0  0  0  0  3  0  0  0  0  0  0
    2.0900   47.1040   70.4100 C   0  0  0  0  0  1  0  0  0  0  0  0
    0.9360   47.8170   71.0960 C   0  0  0  0  0  2  0  0  0  0  0  0
  1  2  1  0  0  0  0
  1 16  1  1  0  0  0
  1 12  1  0  0  0  0
  2  3  1  0  0  0  0
  4  3  1  6  0  0  0
  4  5  1  0  0  0  0
  5  6  1  1  0  0  0
  5 10  1  0  0  0  0
  6  7  2  0  0  0  0
  7  8  1  0  0  0  0
  7  9  1  0  0  0  0
  8 14  1  0  0  0  0
 10 15  1  0  0  0  0
 10  9  1  0  0  0  0
 11  4  1  0  0  0  0
 12 11  1  0  0  0  0
 13  8  1  0  0  0  0
 17 16  1  0  0  0  0
 18 16  1  0  0  0  0
 18 19  1  0  0  0  0
 19 23  1  0  0  0  0
 20 21  1  0  0  0  0
 20 27  1  0  0  0  0
 22 21  2  0  0  0  0
 23 22  1  0  0  0  0
 24 23  2  0  0  0  0
 24 25  1  0  0  0  0
 25 20  2  0  0  0  0
 26 27  1  0  0  0  0
M  END
>  <MODEL>
4

>  <REMARK>
 VINA RESULT:      -8.4      3.970      5.503
  Name = CHEMBL4103842-970
  7 active torsions:
  status: ('A' for Active; 'I' for Inactive)
    1  A    between atoms: C_1  and  C_2
    2  A    between atoms: C_2  and  C_3
    3  A    between atoms: C_6  and  C_7
    4  A    between atoms: C_7  and  C_8
    5  A    between atoms: C_8  and  N_9
    6  A    between atoms: N_9  and  C_10
    7  A    between atoms: N_9  and  C_11
                            x       y       z     vdW  Elec       q    Type
                         _______ _______ _______ _____ _____    ______ ____

>  <TORSDO>
F 5

>  <rfscore_v2>
6.886765755411258

>  <vina_affinity>
-7.045452630901419

>  <vina_gauss1>
76.12982551154046

>  <vina_gauss2>
1148.7953939492838

>  <vina_repulsion>
0.7333476856086085

>  <vina_hydrophobic>
42.6328358766354

>  <vina_hydrogen>
0.0

>  <vina_intra_gauss1>
38.17424723457937

>  <vina_intra_gauss2>
202.06840518974747

>  <vina_intra_repulsion>
0.12251175131874695

>  <vina_intra_hydrophobic>
20.038202872933915

>  <vina_intra_hydrogen>
0.0

>  <vina_num_rotors>
6.0

>  <rfscore_v3>
6.661033803213131

>  <PLEClinear_p5_l1_s65536>
1.404695885663778

>  <nnscore>
6.662358176584118

$$$$
CHEMBL4103842-970
 OpenBabel12202021063D

 27 29  0  0  1  0  0  0  0  0999 V2000
   -0.1130   47.6760   67.2320 C   0  0  2  0  0  3  0  0  0  0  0  0
    1.0240   47.9250   66.2050 C   0  0  0  0  0  2  0  0  0  0  0  0
    1.3750   49.4010   65.9880 C   0  0  0  0  0  2  0  0  0  0  0  0
    0.1680   50.2050   65.7860 N   0  0  1  0  0  0  0  0  0  0  0  0
    0.0350   50.9540   64.6640 C   0  0  2  0  0  3  0  0  0  0  0  0
    0.7650   50.9520   63.5720 N   0  0  0  0  0  0  0  0  0  0  0  0
    0.2020   51.9220   62.8060 C   0  0  0  0  0  0  0  0  0  0  0  0
    0.7260   52.1760   61.6070 N   0  0  0  0  0  0  0  0  0  0  0  0
   -0.8590   52.5260   63.3240 N   0  0  0  0  0  2  0  0  0  0  0  0
   -0.9330   51.9130   64.5190 N   0  0  0  0  0  0  0  0  0  0  0  0
   -0.8940   50.0300   66.7620 C   0  0  0  0  0  2  0  0  0  0  0  0
   -1.2970   48.5610   66.7760 C   0  0  0  0  0  2  0  0  0  0  0  0
    1.3110   51.4540   61.2130 H   0  0  0  0  0  0  0  0  0  0  0  0
    0.1430   52.6680   60.9500 H   0  0  0  0  0  0  0  0  0  0  0  0
   -1.6340   52.2120   65.1800 H   0  0  0  0  0  0  0  0  0  0  0  0
    0.2180   47.8970   68.6770 N   0  0  0  0  0  0  0  0  0  0  0  0
    1.4390   47.1840   69.0790 C   0  0  0  0  0  1  0  0  0  0  0  0
   -0.9180   47.4660   69.5430 C   0  0  0  0  0  2  0  0  0  0  0  0
   -1.0850   45.9470   69.7100 C   0  0  0  0  0  2  0  0  0  0  0  0
   -5.2080   44.7170   69.2350 C   0  0  0  0  0  0  0  0  0  0  0  0
   -4.4050   44.1500   70.2340 C   0  0  0  0  0  3  0  0  0  0  0  0
   -3.0730   44.5400   70.3780 C   0  0  0  0  0  3  0  0  0  0  0  0
   -2.5270   45.5230   69.5440 C   0  0  0  0  0  0  0  0  0  0  0  0
   -3.3320   46.0980   68.5520 C   0  0  0  0  0  3  0  0  0  0  0  0
   -4.6650   45.7060   68.4060 C   0  0  0  0  0  3  0  0  0  0  0  0
   -7.3710   45.0900   68.0200 C   0  0  0  0  0  1  0  0  0  0  0  0
   -6.6370   44.2710   69.0690 C   0  0  0  0  0  2  0  0  0  0  0  0
  1 16  1  1  0  0  0
  2  1  1  0  0  0  0
  3  2  1  0  0  0  0
  4  3  1  6  0  0  0
  4 11  1  0  0  0  0
  5  6  1  1  0  0  0
  5  4  1  0  0  0  0
  7  9  1  0  0  0  0
  7  6  2  0  0  0  0
  8  7  1  0  0  0  0
  9 10  1  0  0  0  0
 10  5  1  0  0  0  0
 10 15  1  0  0  0  0
 11 12  1  0  0  0  0
 12  1  1  0  0  0  0
 13  8  1  0  0  0  0
 14  8  1  0  0  0  0
 16 17  1  0  0  0  0
 16 18  1  0  0  0  0
 18 19  1  0  0  0  0
 20 21  1  0  0  0  0
 21 22  2  0  0  0  0
 23 19  1  0  0  0  0
 23 22  1  0  0  0  0
 24 23  2  0  0  0  0
 25 24  1  0  0  0  0
 25 20  2  0  0  0  0
 26 27  1  0  0  0  0
 27 20  1  0  0  0  0
M  END
>  <MODEL>
5

>  <REMARK>
 VINA RESULT:      -8.0      3.625      9.063
  Name = CHEMBL4103842-970
  7 active torsions:
  status: ('A' for Active; 'I' for Inactive)
    1  A    between atoms: C_1  and  C_2
    2  A    between atoms: C_2  and  C_3
    3  A    between atoms: C_6  and  C_7
    4  A    between atoms: C_7  and  C_8
    5  A    between atoms: C_8  and  N_9
    6  A    between atoms: N_9  and  C_10
    7  A    between atoms: N_9  and  C_11
                            x       y       z     vdW  Elec       q    Type
                         _______ _______ _______ _____ _____    ______ ____

>  <TORSDO>
F 5

>  <rfscore_v2>
7.040302269785762

>  <vina_affinity>
-7.2153883041199975

>  <vina_gauss1>
75.45319836236735

>  <vina_gauss2>
1074.569655167117

>  <vina_repulsion>
0.46252609097990605

>  <vina_hydrophobic>
54.29054794662787

>  <vina_hydrogen>
0.0

>  <vina_intra_gauss1>
26.331495359592346

>  <vina_intra_gauss2>
145.8917828412809

>  <vina_intra_repulsion>
0.04243212739520925

>  <vina_intra_hydrophobic>
15.788482641897222

>  <vina_intra_hydrogen>
0.0

>  <vina_num_rotors>
6.0

>  <rfscore_v3>
6.485236789821292

>  <PLEClinear_p5_l1_s65536>
1.3235884052052844

>  <nnscore>
6.388188773094589

$$$$
CHEMBL4103842-970
 OpenBabel12202021063D

 27 29  0  0  1  0  0  0  0  0999 V2000
   -0.7850   49.3670   65.1190 C   0  0  2  0  0  3  0  0  0  0  0  0
   -1.7940   48.2370   65.4640 C   0  0  0  0  0  2  0  0  0  0  0  0
   -2.3250   48.2750   66.9010 C   0  0  0  0  0  2  0  0  0  0  0  0
   -1.2330   48.4480   67.8610 N   0  0  1  0  0  0  0  0  0  0  0  0
   -1.0570   47.5440   68.8560 C   0  0  2  0  0  3  0  0  0  0  0  0
   -1.6190   46.3680   69.0200 N   0  0  0  0  0  0  0  0  0  0  0  0
   -1.1040   45.9250   70.1960 C   0  0  0  0  0  0  0  0  0  0  0  0
   -1.4890   44.7340   70.6530 N   0  0  0  0  0  0  0  0  0  0  0  0
   -0.2270   46.7280   70.7820 N   0  0  0  0  0  2  0  0  0  0  0  0
   -0.2300   47.7660   69.9260 N   0  0  0  0  0  0  0  0  0  0  0  0
   -0.3020   49.5320   67.5910 C   0  0  0  0  0  2  0  0  0  0  0  0
    0.3070   49.3090   66.2130 C   0  0  0  0  0  2  0  0  0  0  0  0
   -1.9010   44.1070   69.9780 H   0  0  0  0  0  0  0  0  0  0  0  0
   -0.8990   44.3000   71.3450 H   0  0  0  0  0  0  0  0  0  0  0  0
    0.3200   48.5820   70.1450 H   0  0  0  0  0  0  0  0  0  0  0  0
   -1.3430   50.7500   64.9670 N   0  0  0  0  0  0  0  0  0  0  0  0
   -2.4620   50.7930   64.0140 C   0  0  0  0  0  1  0  0  0  0  0  0
   -0.2770   51.6950   64.5260 C   0  0  0  0  0  2  0  0  0  0  0  0
   -0.1880   51.9340   63.0100 C   0  0  0  0  0  2  0  0  0  0  0  0
    3.4350   50.2440   61.3490 C   0  0  0  0  0  0  0  0  0  0  0  0
    2.7850   49.6220   62.4230 C   0  0  0  0  0  3  0  0  0  0  0  0
    1.6240   50.1740   62.9650 C   0  0  0  0  0  3  0  0  0  0  0  0
    1.0760   51.3440   62.4250 C   0  0  0  0  0  0  0  0  0  0  0  0
    1.7190   51.9610   61.3440 C   0  0  0  0  0  3  0  0  0  0  0  0
    2.8830   51.4100   60.8040 C   0  0  0  0  0  3  0  0  0  0  0  0
    5.2420   48.5300   61.6550 C   0  0  0  0  0  1  0  0  0  0  0  0
    4.7030   49.6560   60.7880 C   0  0  0  0  0  2  0  0  0  0  0  0
  1 16  1  1  0  0  0
  1  2  1  0  0  0  0
  1 12  1  0  0  0  0
  2  3  1  0  0  0  0
  4  3  1  6  0  0  0
  4  5  1  0  0  0  0
  5  6  1  1  0  0  0
  5 10  1  0  0  0  0
  6  7  2  0  0  0  0
  7  8  1  0  0  0  0
  7  9  1  0  0  0  0
  8 14  1  0  0  0  0
 10 15  1  0  0  0  0
 10  9  1  0  0  0  0
 11  4  1  0  0  0  0
 12 11  1  0  0  0  0
 13  8  1  0  0  0  0
 17 16  1  0  0  0  0
 18 16  1  0  0  0  0
 19 18  1  0  0  0  0
 20 21  1  0  0  0  0
 21 22  2  0  0  0  0
 23 22  1  0  0  0  0
 23 19  1  0  0  0  0
 24 23  2  0  0  0  0
 25 24  1  0  0  0  0
 25 20  2  0  0  0  0
 27 20  1  0  0  0  0
 27 26  1  0  0  0  0
M  END
>  <MODEL>
6

>  <REMARK>
 VINA RESULT:      -8.0      2.111      4.078
  Name = CHEMBL4103842-970
  7 active torsions:
  status: ('A' for Active; 'I' for Inactive)
    1  A    between atoms: C_1  and  C_2
    2  A    between atoms: C_2  and  C_3
    3  A    between atoms: C_6  and  C_7
    4  A    between atoms: C_7  and  C_8
    5  A    between atoms: C_8  and  N_9
    6  A    between atoms: N_9  and  C_10
    7  A    between atoms: N_9  and  C_11
                            x       y       z     vdW  Elec       q    Type
                         _______ _______ _______ _____ _____    ______ ____

>  <TORSDO>
F 5

>  <rfscore_v2>
6.780852116050613

>  <vina_affinity>
-7.3815736796347915

>  <vina_gauss1>
67.35686593901778

>  <vina_gauss2>
1116.3551255206507

>  <vina_repulsion>
0.5984259504409214

>  <vina_hydrophobic>
53.83302071484536

>  <vina_hydrogen>
0.7280203362015568

>  <vina_intra_gauss1>
27.43204080335078

>  <vina_intra_gauss2>
147.56153681811176

>  <vina_intra_repulsion>
0.5283477685213144

>  <vina_intra_hydrophobic>
17.088534341317978

>  <vina_intra_hydrogen>
0.0

>  <vina_num_rotors>
6.0

>  <rfscore_v3>
6.632868764957271

>  <PLEClinear_p5_l1_s65536>
0.6291424468348533

>  <nnscore>
5.940052575555502

$$$$
CHEMBL4103842-970
 OpenBabel12202021063D

 27 29  0  0  1  0  0  0  0  0999 V2000
    4.2880   48.5500   62.2530 C   0  0  2  0  0  3  0  0  0  0  0  0
    4.9500   49.0390   60.9370 C   0  0  0  0  0  2  0  0  0  0  0  0
    4.6350   48.1800   59.7080 C   0  0  0  0  0  2  0  0  0  0  0  0
    4.8120   46.7560   60.0010 N   0  0  1  0  0  0  0  0  0  0  0  0
    5.6550   46.0110   59.2470 C   0  0  2  0  0  3  0  0  0  0  0  0
    6.5340   46.3990   58.3510 N   0  0  0  0  0  0  0  0  0  0  0  0
    7.0610   45.2360   57.8900 C   0  0  0  0  0  0  0  0  0  0  0  0
    8.0010   45.2890   56.9460 N   0  0  0  0  0  0  0  0  0  0  0  0
    6.5980   44.1280   58.4520 N   0  0  0  0  0  2  0  0  0  0  0  0
    5.6850   44.6410   59.2950 N   0  0  0  0  0  0  0  0  0  0  0  0
    4.1590   46.2590   61.2010 C   0  0  0  0  0  2  0  0  0  0  0  0
    4.6710   47.0580   62.3920 C   0  0  0  0  0  2  0  0  0  0  0  0
    8.4750   46.1730   56.8370 H   0  0  0  0  0  0  0  0  0  0  0  0
    8.5760   44.4700   56.8300 H   0  0  0  0  0  0  0  0  0  0  0  0
    5.1120   44.0130   59.8380 H   0  0  0  0  0  0  0  0  0  0  0  0
    2.8080   48.7550   62.3840 N   0  0  0  0  0  0  0  0  0  0  0  0
    2.4140   50.1410   62.0900 C   0  0  0  0  0  1  0  0  0  0  0  0
    2.3520   48.3880   63.7570 C   0  0  0  0  0  2  0  0  0  0  0  0
    1.2200   49.2540   64.3330 C   0  0  0  0  0  2  0  0  0  0  0  0
    0.6120   48.4760   68.5470 C   0  0  0  0  0  0  0  0  0  0  0  0
    1.4580   47.6590   67.7860 C   0  0  0  0  0  3  0  0  0  0  0  0
    1.6440   47.9040   66.4250 C   0  0  0  0  0  3  0  0  0  0  0  0
    1.0080   48.9870   65.8060 C   0  0  0  0  0  0  0  0  0  0  0  0
    0.1710   49.8110   66.5680 C   0  0  0  0  0  3  0  0  0  0  0  0
   -0.0180   49.5640   67.9300 C   0  0  0  0  0  3  0  0  0  0  0  0
   -0.7440   49.0090   70.5900 C   0  0  0  0  0  1  0  0  0  0  0  0
    0.3960   48.1880   70.0100 C   0  0  0  0  0  2  0  0  0  0  0  0
  1 16  1  6  0  0  0
  1 12  1  0  0  0  0
  2  1  1  0  0  0  0
  3  2  1  0  0  0  0
  4  3  1  1  0  0  0
  4 11  1  0  0  0  0
  5  6  1  6  0  0  0
  5 10  1  0  0  0  0
  5  4  1  0  0  0  0
  7  6  2  0  0  0  0
  7  9  1  0  0  0  0
  8  7  1  0  0  0  0
  9 10  1  0  0  0  0
 10 15  1  0  0  0  0
 11 12  1  0  0  0  0
 13  8  1  0  0  0  0
 14  8  1  0  0  0  0
 16 18  1  0  0  0  0
 17 16  1  0  0  0  0
 18 19  1  0  0  0  0
 19 23  1  0  0  0  0
 20 27  1  0  0  0  0
 21 20  2  0  0  0  0
 22 21  1  0  0  0  0
 23 22  2  0  0  0  0
 23 24  1  0  0  0  0
 24 25  2  0  0  0  0
 25 20  1  0  0  0  0
 27 26  1  0  0  0  0
M  END
>  <MODEL>
7

>  <REMARK>
 VINA RESULT:      -7.9      6.115     11.005
  Name = CHEMBL4103842-970
  7 active torsions:
  status: ('A' for Active; 'I' for Inactive)
    1  A    between atoms: C_1  and  C_2
    2  A    between atoms: C_2  and  C_3
    3  A    between atoms: C_6  and  C_7
    4  A    between atoms: C_7  and  C_8
    5  A    between atoms: C_8  and  N_9
    6  A    between atoms: N_9  and  C_10
    7  A    between atoms: N_9  and  C_11
                            x       y       z     vdW  Elec       q    Type
                         _______ _______ _______ _____ _____    ______ ____

>  <TORSDO>
F 5

>  <rfscore_v2>
6.464534777056272

>  <vina_affinity>
-7.420872550247337

>  <vina_gauss1>
73.3509021186313

>  <vina_gauss2>
1152.3261126679934

>  <vina_repulsion>
0.5953664324973278

>  <vina_hydrophobic>
56.08010717640424

>  <vina_hydrogen>
0.0

>  <vina_intra_gauss1>
18.026079175458957

>  <vina_intra_gauss2>
124.53149185714373

>  <vina_intra_repulsion>
0.00041271127552932707

>  <vina_intra_hydrophobic>
9.476247243678095

>  <vina_intra_hydrogen>
0.0

>  <vina_num_rotors>
6.0

>  <rfscore_v3>
6.14088301060051

>  <PLEClinear_p5_l1_s65536>
0.8325485748487117

>  <nnscore>
6.408239217961937

$$$$
CHEMBL4103842-970
 OpenBabel12202021063D

 27 29  0  0  1  0  0  0  0  0999 V2000
   -5.8830   45.6750   67.9920 C   0  0  2  0  0  3  0  0  0  0  0  0
   -7.2350   44.9990   68.3490 C   0  0  0  0  0  2  0  0  0  0  0  0
   -7.4600   44.7750   69.8480 C   0  0  0  0  0  2  0  0  0  0  0  0
   -6.2800   44.1720   70.4720 N   0  0  1  0  0  0  0  0  0  0  0  0
   -6.3960   43.0030   71.1480 C   0  0  2  0  0  3  0  0  0  0  0  0
   -7.4080   42.1680   71.1980 N   0  0  0  0  0  0  0  0  0  0  0  0
   -6.9850   41.1980   72.0500 C   0  0  0  0  0  0  0  0  0  0  0  0
   -7.8050   40.1830   72.3200 N   0  0  0  0  0  0  0  0  0  0  0  0
   -5.7570   41.3430   72.5270 N   0  0  0  0  0  2  0  0  0  0  0  0
   -5.4070   42.5120   71.9610 N   0  0  0  0  0  0  0  0  0  0  0  0
   -5.0060   44.8160   70.1980 C   0  0  0  0  0  2  0  0  0  0  0  0
   -4.7910   44.8320   68.6900 C   0  0  0  0  0  2  0  0  0  0  0  0
   -8.5600   40.0320   71.6680 H   0  0  0  0  0  0  0  0  0  0  0  0
   -7.3870   39.3490   72.7010 H   0  0  0  0  0  0  0  0  0  0  0  0
   -4.5140   42.9200   72.1910 H   0  0  0  0  0  0  0  0  0  0  0  0
   -5.7480   47.1320   68.3180 N   0  0  0  0  0  0  0  0  0  0  0  0
   -6.9540   47.8930   67.9570 C   0  0  0  0  0  1  0  0  0  0  0  0
   -4.5650   47.7140   67.6190 C   0  0  0  0  0  2  0  0  0  0  0  0
   -3.9710   48.9780   68.2600 C   0  0  0  0  0  2  0  0  0  0  0  0
   -0.2390   48.1280   70.2810 C   0  0  0  0  0  0  0  0  0  0  0  0
   -0.7860   47.2080   69.3780 C   0  0  0  0  0  3  0  0  0  0  0  0
   -1.9950   47.4780   68.7360 C   0  0  0  0  0  3  0  0  0  0  0  0
   -2.6650   48.6860   68.9650 C   0  0  0  0  0  0  0  0  0  0  0  0
   -2.1130   49.6120   69.8590 C   0  0  0  0  0  3  0  0  0  0  0  0
   -0.9040   49.3390   70.5040 C   0  0  0  0  0  3  0  0  0  0  0  0
    2.0650   47.1560   70.0670 C   0  0  0  0  0  1  0  0  0  0  0  0
    1.0530   47.8160   70.9890 C   0  0  0  0  0  2  0  0  0  0  0  0
  1 16  1  1  0  0  0
  1  2  1  0  0  0  0
  1 12  1  0  0  0  0
  2  3  1  0  0  0  0
  4  3  1  6  0  0  0
  4  5  1  0  0  0  0
  5  6  1  1  0  0  0
  5 10  1  0  0  0  0
  6  7  2  0  0  0  0
  7  8  1  0  0  0  0
  7  9  1  0  0  0  0
  8 14  1  0  0  0  0
 10 15  1  0  0  0  0
 10  9  1  0  0  0  0
 11  4  1  0  0  0  0
 12 11  1  0  0  0  0
 13  8  1  0  0  0  0
 17 16  1  0  0  0  0
 18 19  1  0  0  0  0
 18 16  1  0  0  0  0
 19 23  1  0  0  0  0
 20 25  1  0  0  0  0
 20 27  1  0  0  0  0
 21 20  2  0  0  0  0
 22 23  2  0  0  0  0
 22 21  1  0  0  0  0
 23 24  1  0  0  0  0
 24 25  2  0  0  0  0
 26 27  1  0  0  0  0
M  END
>  <MODEL>
8

>  <REMARK>
 VINA RESULT:      -7.8      4.726      6.146
  Name = CHEMBL4103842-970
  7 active torsions:
  status: ('A' for Active; 'I' for Inactive)
    1  A    between atoms: C_1  and  C_2
    2  A    between atoms: C_2  and  C_3
    3  A    between atoms: C_6  and  C_7
    4  A    between atoms: C_7  and  C_8
    5  A    between atoms: C_8  and  N_9
    6  A    between atoms: N_9  and  C_10
    7  A    between atoms: N_9  and  C_11
                            x       y       z     vdW  Elec       q    Type
                         _______ _______ _______ _____ _____    ______ ____

>  <TORSDO>
F 5

>  <rfscore_v2>
7.042255307359309

>  <vina_affinity>
-6.989701306194795

>  <vina_gauss1>
69.15575106956067

>  <vina_gauss2>
1165.4936953370361

>  <vina_repulsion>
1.238007427142274

>  <vina_hydrophobic>
45.29433951184234

>  <vina_hydrogen>
0.7108844643740163

>  <vina_intra_gauss1>
23.26875282415739

>  <vina_intra_gauss2>
161.61856784435037

>  <vina_intra_repulsion>
0.028059080792608233

>  <vina_intra_hydrophobic>
14.484953105032394

>  <vina_intra_hydrogen>
0.0

>  <vina_num_rotors>
6.0

>  <rfscore_v3>
6.765932538850043

>  <PLEClinear_p5_l1_s65536>
1.493845140544352

>  <nnscore>
6.513955883567556

$$$$
CHEMBL4103842-970
 OpenBabel12202021063D

 27 29  0  0  1  0  0  0  0  0999 V2000
    0.7970   48.3770   64.4830 C   0  0  2  0  0  3  0  0  0  0  0  0
   -0.6070   49.0400   64.4390 C   0  0  0  0  0  2  0  0  0  0  0  0
   -0.8330   50.1220   65.5000 C   0  0  0  0  0  2  0  0  0  0  0  0
   -0.4050   49.6610   66.8220 N   0  0  1  0  0  0  0  0  0  0  0  0
   -1.2810   49.6660   67.8570 C   0  0  2  0  0  3  0  0  0  0  0  0
   -2.5800   49.8580   67.8450 N   0  0  0  0  0  0  0  0  0  0  0  0
   -2.9270   49.7930   69.1570 C   0  0  0  0  0  0  0  0  0  0  0  0
   -4.2080   49.9560   69.4870 N   0  0  0  0  0  0  0  0  0  0  0  0
   -1.9390   49.5440   70.0050 N   0  0  0  0  0  2  0  0  0  0  0  0
   -0.8940   49.4920   69.1600 N   0  0  0  0  0  0  0  0  0  0  0  0
    0.9260   49.0830   66.9030 C   0  0  0  0  0  2  0  0  0  0  0  0
    0.9970   47.9030   65.9420 C   0  0  0  0  0  2  0  0  0  0  0  0
   -4.8810   49.8240   68.7470 H   0  0  0  0  0  0  0  0  0  0  0  0
   -4.4890   49.6210   70.3950 H   0  0  0  0  0  0  0  0  0  0  0  0
    0.0340   49.3670   69.5360 H   0  0  0  0  0  0  0  0  0  0  0  0
    1.9520   49.2050   64.0070 N   0  0  0  0  0  0  0  0  0  0  0  0
    1.5310   50.2490   63.0600 C   0  0  0  0  0  1  0  0  0  0  0  0
    2.9840   48.3390   63.3670 C   0  0  0  0  0  2  0  0  0  0  0  0
    3.5440   48.8510   62.0300 C   0  0  0  0  0  2  0  0  0  0  0  0
    5.9650   45.8480   60.0660 C   0  0  0  0  0  0  0  0  0  0  0  0
    5.5500   45.6730   61.3920 C   0  0  0  0  0  3  0  0  0  0  0  0
    4.7790   46.6470   62.0270 C   0  0  0  0  0  3  0  0  0  0  0  0
    4.3870   47.8020   61.3390 C   0  0  0  0  0  0  0  0  0  0  0  0
    4.7920   47.9730   60.0100 C   0  0  0  0  0  3  0  0  0  0  0  0
    5.5660   46.9990   59.3750 C   0  0  0  0  0  3  0  0  0  0  0  0
    7.1250   45.1590   57.9500 C   0  0  0  0  0  1  0  0  0  0  0  0
    6.8200   44.8040   59.3960 C   0  0  0  0  0  2  0  0  0  0  0  0
  1 16  1  1  0  0  0
  1 12  1  0  0  0  0
  2  1  1  0  0  0  0
  2  3  1  0  0  0  0
  4  3  1  6  0  0  0
  4 11  1  0  0  0  0
  4  5  1  0  0  0  0
  5  6  1  1  0  0  0
  5 10  1  0  0  0  0
  6  7  2  0  0  0  0
  7  8  1  0  0  0  0
  7  9  1  0  0  0  0
  8 14  1  0  0  0  0
 10 15  1  0  0  0  0
 10  9  1  0  0  0  0
 12 11  1  0  0  0  0
 13  8  1  0  0  0  0
 17 16  1  0  0  0  0
 18 16  1  0  0  0  0
 19 18  1  0  0  0  0
 20 21  1  0  0  0  0
 21 22  2  0  0  0  0
 23 22  1  0  0  0  0
 23 19  1  0  0  0  0
 24 23  2  0  0  0  0
 25 24  1  0  0  0  0
 25 20  2  0  0  0  0
 26 27  1  0  0  0  0
 27 20  1  0  0  0  0
M  END
>  <MODEL>
9

>  <REMARK>
 VINA RESULT:      -7.8      3.710      5.597
  Name = CHEMBL4103842-970
  7 active torsions:
  status: ('A' for Active; 'I' for Inactive)
    1  A    between atoms: C_1  and  C_2
    2  A    between atoms: C_2  and  C_3
    3  A    between atoms: C_6  and  C_7
    4  A    between atoms: C_7  and  C_8
    5  A    between atoms: C_8  and  N_9
    6  A    between atoms: N_9  and  C_10
    7  A    between atoms: N_9  and  C_11
                            x       y       z     vdW  Elec       q    Type
                         _______ _______ _______ _____ _____    ______ ____

>  <TORSDO>
F 5

>  <rfscore_v2>
6.766470340437335

>  <vina_affinity>
-7.187048747678644

>  <vina_gauss1>
61.95057272786264

>  <vina_gauss2>
1177.1120771947376

>  <vina_repulsion>
1.1812681471832975

>  <vina_hydrophobic>
45.603458363002716

>  <vina_hydrogen>
1.400252139300967

>  <vina_intra_gauss1>
17.467484081068687

>  <vina_intra_gauss2>
124.02690882846477

>  <vina_intra_repulsion>
0.320419341801578

>  <vina_intra_hydrophobic>
9.106482686381531

>  <vina_intra_hydrogen>
0.0

>  <vina_num_rotors>
6.0

>  <rfscore_v3>
6.693810159340665

>  <PLEClinear_p5_l1_s65536>
3.231244153687608

>  <nnscore>
6.400276911497103

$$$$
