CHEMBL4077644-3.5
 OpenBabel12202021063D

 33 36  0  0  0  0  0  0  0  0999 V2000
   -1.2220   47.8930   67.5800 N   0  0  0  0  0  0  0  0  0  0  0  0
    3.7180   47.1230   74.0580 N   0  0  0  0  0  0  0  0  0  0  0  0
    3.4780   47.0080   72.7590 C   0  0  0  0  0  0  0  0  0  0  0  0
    4.3640   46.6130   71.8530 N   0  0  0  0  0  0  0  0  0  0  0  0
    3.6150   46.6120   70.7500 N   0  0  0  0  0  0  0  0  0  0  0  0
    2.3490   47.0440   70.9890 C   0  0  0  0  0  0  0  0  0  0  0  0
    1.3830   47.1010   70.0230 N   0  0  0  0  0  0  0  0  0  0  0  0
    1.7000   47.1610   68.6000 C   0  0  0  0  0  2  0  0  0  0  0  0
    1.2320   48.4820   68.0000 C   0  0  0  0  0  2  0  0  0  0  0  0
   -0.2630   48.7870   68.3080 C   0  0  0  0  0  3  0  0  0  0  0  0
   -0.3370   48.8020   69.8480 C   0  0  0  0  0  2  0  0  0  0  0  0
    0.0100   47.4290   70.4100 C   0  0  0  0  0  2  0  0  0  0  0  0
    2.2450   47.3130   72.2750 N   0  0  0  0  0  0  0  0  0  0  0  0
    4.6890   47.1330   74.3440 H   0  0  0  0  0  0  0  0  0  0  0  0
    3.0930   47.6900   74.6110 H   0  0  0  0  0  0  0  0  0  0  0  0
    4.0070   46.2670   69.8870 H   0  0  0  0  0  0  0  0  0  0  0  0
   -2.5010   47.6770   68.3090 C   0  0  0  0  0  2  0  0  0  0  0  0
   -3.5670   46.8640   67.5290 C   0  0  0  0  0  2  0  0  0  0  0  0
   -4.2110   45.7920   68.3760 C   0  0  0  0  0  0  0  0  0  0  0  0
   -5.5240   45.3610   68.1320 C   0  0  0  0  0  3  0  0  0  0  0  0
   -6.1260   44.4260   68.9760 C   0  0  0  0  0  3  0  0  0  0  0  0
   -5.4140   43.9190   70.0610 C   0  0  0  0  0  0  0  0  0  0  0  0
   -6.1690   42.8140   71.1420 Cl  0  0  0  0  0  0  0  0  0  0  0  0
   -4.0980   44.3160   70.2910 C   0  0  0  0  0  3  0  0  0  0  0  0
   -3.4950   45.2450   69.4460 C   0  0  0  0  0  3  0  0  0  0  0  0
   -1.4840   48.2980   66.1670 C   0  0  0  0  0  2  0  0  0  0  0  0
   -0.2660   48.5020   65.2630 C   0  0  0  0  0  0  0  0  0  0  0  0
    0.5350   47.4010   64.9310 C   0  0  0  0  0  3  0  0  0  0  0  0
    1.7100   47.5050   64.1970 C   0  0  0  0  0  3  0  0  0  0  0  0
    2.0870   48.7490   63.7180 C   0  0  0  0  0  3  0  0  0  0  0  0
    1.2780   49.8570   63.9730 C   0  0  0  0  0  3  0  0  0  0  0  0
    0.1030   49.7420   64.7250 C   0  0  0  0  0  0  0  0  0  0  0  0
   -0.8510   51.1720   64.8650 Cl  0  0  0  0  0  0  0  0  0  0  0  0
  1 10  1  0  0  0  0
  1 17  1  0  0  0  0
  2 14  1  0  0  0  0
  2 15  1  0  0  0  0
  3  2  1  0  0  0  0
  4  3  2  0  0  0  0
  5  6  1  0  0  0  0
  5  4  1  0  0  0  0
  6 13  2  0  0  0  0
  7 12  1  0  0  0  0
  7  6  1  0  0  0  0
  8  7  1  0  0  0  0
  9 10  1  0  0  0  0
  9  8  1  0  0  0  0
 10 11  1  0  0  0  0
 11 12  1  0  0  0  0
 13  3  1  0  0  0  0
 16  5  1  0  0  0  0
 18 17  1  0  0  0  0
 18 19  1  0  0  0  0
 19 25  1  0  0  0  0
 20 19  2  0  0  0  0
 20 21  1  0  0  0  0
 21 22  2  0  0  0  0
 22 24  1  0  0  0  0
 22 23  1  0  0  0  0
 25 24  2  0  0  0  0
 26  1  1  0  0  0  0
 27 26  1  0  0  0  0
 28 27  1  0  0  0  0
 29 28  2  0  0  0  0
 30 31  2  0  0  0  0
 30 29  1  0  0  0  0
 31 32  1  0  0  0  0
 32 33  1  0  0  0  0
 32 27  2  0  0  0  0
M  END
>  <MODEL>
1

>  <REMARK>
 VINA RESULT:     -10.1      0.000      0.000
  Name = CHEMBL4077644-3.5
  6 active torsions:
  status: ('A' for Active; 'I' for Inactive)
    1  A    between atoms: C_9  and  N_10
    2  A    between atoms: N_10  and  C_11
    3  A    between atoms: N_10  and  C_20
    4  A    between atoms: C_11  and  C_12
    5  A    between atoms: C_12  and  C_13
    6  A    between atoms: C_20  and  C_21
                            x       y       z     vdW  Elec       q    Type
                         _______ _______ _______ _____ _____    ______ ____

>  <TORSDO>
F 6

>  <rfscore_v2>
7.833500171717165

>  <vina_affinity>
-10.231085099522804

>  <vina_gauss1>
129.93473053641617

>  <vina_gauss2>
1532.5968948020234

>  <vina_repulsion>
3.533350701306257

>  <vina_hydrophobic>
69.76277115270378

>  <vina_hydrogen>
3.0794904715805953

>  <vina_intra_gauss1>
34.65842243148353

>  <vina_intra_gauss2>
267.78588582351085

>  <vina_intra_repulsion>
1.9491453265911756

>  <vina_intra_hydrophobic>
21.733849882439703

>  <vina_intra_hydrogen>
0.0

>  <vina_num_rotors>
6.0

>  <rfscore_v3>
7.499845123987129

>  <PLEClinear_p5_l1_s65536>
5.737240175240329

>  <nnscore>
7.523546693557854

$$$$
CHEMBL4077644-3.5
 OpenBabel12202021063D

 33 36  0  0  0  0  0  0  0  0999 V2000
   -0.9130   48.0360   68.0660 N   0  0  0  0  0  0  0  0  0  0  0  0
    5.7470   45.8260   72.2750 N   0  0  0  0  0  0  0  0  0  0  0  0
    4.5450   46.3810   72.2100 C   0  0  0  0  0  0  0  0  0  0  0  0
    3.8730   46.8680   73.2450 N   0  0  0  0  0  0  0  0  0  0  0  0
    2.7880   47.3500   72.6400 N   0  0  0  0  0  0  0  0  0  0  0  0
    2.7960   47.1070   71.3030 C   0  0  0  0  0  0  0  0  0  0  0  0
    1.8070   47.5330   70.4600 N   0  0  0  0  0  0  0  0  0  0  0  0
    0.4650   47.8610   70.9270 C   0  0  0  0  0  2  0  0  0  0  0  0
   -0.5610   46.9030   70.3320 C   0  0  0  0  0  2  0  0  0  0  0  0
   -0.4600   46.7990   68.7830 C   0  0  0  0  0  3  0  0  0  0  0  0
    0.9830   46.3200   68.5280 C   0  0  0  0  0  2  0  0  0  0  0  0
    1.9820   47.3610   69.0170 C   0  0  0  0  0  2  0  0  0  0  0  0
    3.9140   46.4760   71.0090 N   0  0  0  0  0  0  0  0  0  0  0  0
    6.0720   45.5480   73.1930 H   0  0  0  0  0  0  0  0  0  0  0  0
    6.0460   45.2410   71.5090 H   0  0  0  0  0  0  0  0  0  0  0  0
    2.1100   47.8670   73.1790 H   0  0  0  0  0  0  0  0  0  0  0  0
   -0.7560   47.9560   66.5880 C   0  0  0  0  0  2  0  0  0  0  0  0
    0.0220   49.1370   65.9500 C   0  0  0  0  0  2  0  0  0  0  0  0
    1.0260   48.6780   64.9200 C   0  0  0  0  0  0  0  0  0  0  0  0
    1.5690   47.3840   64.9560 C   0  0  0  0  0  3  0  0  0  0  0  0
    2.5540   47.0080   64.0410 C   0  0  0  0  0  3  0  0  0  0  0  0
    2.9930   47.9240   63.0870 C   0  0  0  0  0  0  0  0  0  0  0  0
    4.2500   47.4900   61.9960 Cl  0  0  0  0  0  0  0  0  0  0  0  0
    2.4360   49.1990   63.0220 C   0  0  0  0  0  3  0  0  0  0  0  0
    1.4490   49.5740   63.9320 C   0  0  0  0  0  3  0  0  0  0  0  0
   -2.2930   48.4820   68.4250 C   0  0  0  0  0  2  0  0  0  0  0  0
   -2.5690   49.9860   68.3930 C   0  0  0  0  0  0  0  0  0  0  0  0
   -1.8320   50.8380   69.2280 C   0  0  0  0  0  3  0  0  0  0  0  0
   -2.0770   52.2010   69.3360 C   0  0  0  0  0  3  0  0  0  0  0  0
   -3.0610   52.7650   68.5400 C   0  0  0  0  0  3  0  0  0  0  0  0
   -3.7690   51.9580   67.6480 C   0  0  0  0  0  3  0  0  0  0  0  0
   -3.5220   50.5830   67.5580 C   0  0  0  0  0  0  0  0  0  0  0  0
   -4.3940   49.7350   66.3360 Cl  0  0  0  0  0  0  0  0  0  0  0  0
  1 26  1  0  0  0  0
  1 10  1  0  0  0  0
  2 14  1  0  0  0  0
  3  2  1  0  0  0  0
  3  4  2  0  0  0  0
  5 16  1  0  0  0  0
  5  4  1  0  0  0  0
  6  5  1  0  0  0  0
  7  8  1  0  0  0  0
  7  6  1  0  0  0  0
  9  8  1  0  0  0  0
 10  9  1  0  0  0  0
 11 10  1  0  0  0  0
 11 12  1  0  0  0  0
 12  7  1  0  0  0  0
 13  6  2  0  0  0  0
 13  3  1  0  0  0  0
 15  2  1  0  0  0  0
 17  1  1  0  0  0  0
 18 17  1  0  0  0  0
 19 20  1  0  0  0  0
 19 18  1  0  0  0  0
 21 20  2  0  0  0  0
 22 21  1  0  0  0  0
 23 22  1  0  0  0  0
 24 22  2  0  0  0  0
 24 25  1  0  0  0  0
 25 19  2  0  0  0  0
 27 26  1  0  0  0  0
 27 28  1  0  0  0  0
 28 29  2  0  0  0  0
 30 29  1  0  0  0  0
 31 30  2  0  0  0  0
 32 31  1  0  0  0  0
 32 27  2  0  0  0  0
 33 32  1  0  0  0  0
M  END
>  <MODEL>
2

>  <REMARK>
 VINA RESULT:     -10.0      2.858      6.109
  Name = CHEMBL4077644-3.5
  6 active torsions:
  status: ('A' for Active; 'I' for Inactive)
    1  A    between atoms: C_9  and  N_10
    2  A    between atoms: N_10  and  C_11
    3  A    between atoms: N_10  and  C_20
    4  A    between atoms: C_11  and  C_12
    5  A    between atoms: C_12  and  C_13
    6  A    between atoms: C_20  and  C_21
                            x       y       z     vdW  Elec       q    Type
                         _______ _______ _______ _____ _____    ______ ____

>  <TORSDO>
F 6

>  <rfscore_v2>
7.708934210678214

>  <vina_affinity>
-9.792285860460442

>  <vina_gauss1>
135.36576177317914

>  <vina_gauss2>
1652.1688700561117

>  <vina_repulsion>
4.824229107570453

>  <vina_hydrophobic>
66.71666406402326

>  <vina_hydrogen>
2.718506389402572

>  <vina_intra_gauss1>
39.62414947498411

>  <vina_intra_gauss2>
288.1389800981876

>  <vina_intra_repulsion>
0.0582422547592394

>  <vina_intra_hydrophobic>
21.611746255567944

>  <vina_intra_hydrogen>
0.0

>  <vina_num_rotors>
6.0

>  <rfscore_v3>
7.514661793484289

>  <PLEClinear_p5_l1_s65536>
8.662773765198981

>  <nnscore>
7.601778549303593

$$$$
CHEMBL4077644-3.5
 OpenBabel12202021063D

 33 36  0  0  0  0  0  0  0  0999 V2000
   -1.4620   48.9770   66.8720 N   0  0  0  0  0  0  0  0  0  0  0  0
   -8.5100   44.8710   66.2150 N   0  0  0  0  0  0  0  0  0  0  0  0
   -7.3840   45.1530   66.8570 C   0  0  0  0  0  0  0  0  0  0  0  0
   -7.0290   44.6450   68.0300 N   0  0  0  0  0  0  0  0  0  0  0  0
   -5.8220   45.1890   68.1870 N   0  0  0  0  0  0  0  0  0  0  0  0
   -5.5030   46.0310   67.1690 C   0  0  0  0  0  0  0  0  0  0  0  0
   -4.3040   46.6840   67.0870 N   0  0  0  0  0  0  0  0  0  0  0  0
   -3.4610   46.9240   68.2520 C   0  0  0  0  0  2  0  0  0  0  0  0
   -3.3320   48.4180   68.5250 C   0  0  0  0  0  2  0  0  0  0  0  0
   -2.8860   49.2230   67.2700 C   0  0  0  0  0  3  0  0  0  0  0  0
   -3.9780   48.9260   66.2220 C   0  0  0  0  0  2  0  0  0  0  0  0
   -3.9910   47.4430   65.8750 C   0  0  0  0  0  2  0  0  0  0  0  0
   -6.5000   46.0280   66.3080 N   0  0  0  0  0  0  0  0  0  0  0  0
   -9.2430   44.4260   66.7530 H   0  0  0  0  0  0  0  0  0  0  0  0
   -8.8200   45.5040   65.4930 H   0  0  0  0  0  0  0  0  0  0  0  0
   -5.2560   44.9160   68.9750 H   0  0  0  0  0  0  0  0  0  0  0  0
   -1.1800   49.3060   65.4480 C   0  0  0  0  0  2  0  0  0  0  0  0
    0.1630   50.0430   65.2030 C   0  0  0  0  0  2  0  0  0  0  0  0
    1.1460   49.2090   64.4180 C   0  0  0  0  0  0  0  0  0  0  0  0
    1.4180   47.8780   64.7710 C   0  0  0  0  0  3  0  0  0  0  0  0
    2.3890   47.1510   64.0790 C   0  0  0  0  0  3  0  0  0  0  0  0
    3.0840   47.7530   63.0320 C   0  0  0  0  0  0  0  0  0  0  0  0
    4.3250   46.8850   62.2160 Cl  0  0  0  0  0  0  0  0  0  0  0  0
    2.7970   49.0620   62.6530 C   0  0  0  0  0  3  0  0  0  0  0  0
    1.8250   49.7870   63.3400 C   0  0  0  0  0  3  0  0  0  0  0  0
   -0.4550   49.6180   67.7690 C   0  0  0  0  0  2  0  0  0  0  0  0
    0.3240   48.6970   68.7110 C   0  0  0  0  0  0  0  0  0  0  0  0
    1.3580   47.9030   68.1950 C   0  0  0  0  0  3  0  0  0  0  0  0
    2.0550   46.9700   68.9520 C   0  0  0  0  0  3  0  0  0  0  0  0
    1.7580   46.8530   70.3000 C   0  0  0  0  0  3  0  0  0  0  0  0
    0.7810   47.6750   70.8620 C   0  0  0  0  0  3  0  0  0  0  0  0
    0.0750   48.6020   70.0860 C   0  0  0  0  0  0  0  0  0  0  0  0
   -1.0230   49.6240   70.9360 Cl  0  0  0  0  0  0  0  0  0  0  0  0
  1 10  1  0  0  0  0
  1 26  1  0  0  0  0
  2 14  1  0  0  0  0
  2  3  1  0  0  0  0
  3  4  2  0  0  0  0
  4  5  1  0  0  0  0
  5 16  1  0  0  0  0
  6  5  1  0  0  0  0
  7  6  1  0  0  0  0
  7  8  1  0  0  0  0
  8  9  1  0  0  0  0
 10  9  1  0  0  0  0
 11 10  1  0  0  0  0
 12 11  1  0  0  0  0
 12  7  1  0  0  0  0
 13  3  1  0  0  0  0
 13  6  2  0  0  0  0
 15  2  1  0  0  0  0
 17  1  1  0  0  0  0
 18 17  1  0  0  0  0
 19 20  1  0  0  0  0
 19 18  1  0  0  0  0
 21 20  2  0  0  0  0
 22 21  1  0  0  0  0
 23 22  1  0  0  0  0
 24 22  2  0  0  0  0
 24 25  1  0  0  0  0
 25 19  2  0  0  0  0
 26 27  1  0  0  0  0
 27 32  1  0  0  0  0
 28 27  2  0  0  0  0
 28 29  1  0  0  0  0
 29 30  2  0  0  0  0
 30 31  1  0  0  0  0
 32 31  2  0  0  0  0
 32 33  1  0  0  0  0
M  END
>  <MODEL>
3

>  <REMARK>
 VINA RESULT:      -9.9      3.798      8.200
  Name = CHEMBL4077644-3.5
  6 active torsions:
  status: ('A' for Active; 'I' for Inactive)
    1  A    between atoms: C_9  and  N_10
    2  A    between atoms: N_10  and  C_11
    3  A    between atoms: N_10  and  C_20
    4  A    between atoms: C_11  and  C_12
    5  A    between atoms: C_12  and  C_13
    6  A    between atoms: C_20  and  C_21
                            x       y       z     vdW  Elec       q    Type
                         _______ _______ _______ _____ _____    ______ ____

>  <TORSDO>
F 6

>  <rfscore_v2>
7.340135343767342

>  <vina_affinity>
-9.276365987802476

>  <vina_gauss1>
112.42488214575884

>  <vina_gauss2>
1340.5193388254725

>  <vina_repulsion>
1.0962686281979297

>  <vina_hydrophobic>
72.18890326150867

>  <vina_hydrogen>
0.0

>  <vina_intra_gauss1>
42.919191401356805

>  <vina_intra_gauss2>
283.28978757176645

>  <vina_intra_repulsion>
0.6972540046733171

>  <vina_intra_hydrophobic>
28.96319832968896

>  <vina_intra_hydrogen>
0.0

>  <vina_num_rotors>
6.0

>  <rfscore_v3>
6.987052444832935

>  <PLEClinear_p5_l1_s65536>
5.027228833520624

>  <nnscore>
7.077359792062021

$$$$
CHEMBL4077644-3.5
 OpenBabel12202021063D

 33 36  0  0  0  0  0  0  0  0999 V2000
   -2.1710   48.9490   68.1870 N   0  0  0  0  0  0  0  0  0  0  0  0
   -6.8450   51.8930   62.1490 N   0  0  0  0  0  0  0  0  0  0  0  0
   -5.7090   51.8670   62.8320 C   0  0  0  0  0  0  0  0  0  0  0  0
   -4.6300   52.5820   62.5430 N   0  0  0  0  0  0  0  0  0  0  0  0
   -3.8220   52.2400   63.5460 N   0  0  0  0  0  0  0  0  0  0  0  0
   -4.3860   51.3140   64.3660 C   0  0  0  0  0  0  0  0  0  0  0  0
   -3.7660   50.8300   65.4840 N   0  0  0  0  0  0  0  0  0  0  0  0
   -2.3190   50.8800   65.6640 C   0  0  0  0  0  2  0  0  0  0  0  0
   -1.7350   49.4740   65.7220 C   0  0  0  0  0  2  0  0  0  0  0  0
   -2.4510   48.5670   66.7640 C   0  0  0  0  0  3  0  0  0  0  0  0
   -3.9240   48.5540   66.3080 C   0  0  0  0  0  2  0  0  0  0  0  0
   -4.5150   49.9560   66.3880 C   0  0  0  0  0  2  0  0  0  0  0  0
   -5.5970   51.0540   63.9160 N   0  0  0  0  0  0  0  0  0  0  0  0
   -6.8130   52.3040   61.2240 H   0  0  0  0  0  0  0  0  0  0  0  0
   -7.4900   51.1260   62.2650 H   0  0  0  0  0  0  0  0  0  0  0  0
   -2.9300   52.7010   63.6410 H   0  0  0  0  0  0  0  0  0  0  0  0
   -2.4750   47.8670   69.1620 C   0  0  0  0  0  2  0  0  0  0  0  0
   -2.3670   46.4280   68.5930 C   0  0  0  0  0  2  0  0  0  0  0  0
   -3.5680   45.5800   68.9340 C   0  0  0  0  0  0  0  0  0  0  0  0
   -4.7550   45.6630   68.1880 C   0  0  0  0  0  3  0  0  0  0  0  0
   -5.8790   44.9270   68.5690 C   0  0  0  0  0  3  0  0  0  0  0  0
   -5.8160   44.1060   69.6930 C   0  0  0  0  0  0  0  0  0  0  0  0
   -7.2150   43.2460   70.2060 Cl  0  0  0  0  0  0  0  0  0  0  0  0
   -4.6330   43.9920   70.4200 C   0  0  0  0  0  3  0  0  0  0  0  0
   -3.5090   44.7220   70.0370 C   0  0  0  0  0  3  0  0  0  0  0  0
   -0.8010   49.4960   68.4170 C   0  0  0  0  0  2  0  0  0  0  0  0
    0.2030   48.5830   69.1250 C   0  0  0  0  0  0  0  0  0  0  0  0
    0.2240   48.5420   70.5260 C   0  0  0  0  0  3  0  0  0  0  0  0
    1.1600   47.8180   71.2540 C   0  0  0  0  0  3  0  0  0  0  0  0
    2.0880   47.0520   70.5690 C   0  0  0  0  0  3  0  0  0  0  0  0
    2.0530   47.0170   69.1740 C   0  0  0  0  0  3  0  0  0  0  0  0
    1.1140   47.7610   68.4500 C   0  0  0  0  0  0  0  0  0  0  0  0
    1.1210   47.5330   66.7410 Cl  0  0  0  0  0  0  0  0  0  0  0  0
  1 26  1  0  0  0  0
  1 17  1  0  0  0  0
  2 15  1  0  0  0  0
  2  3  1  0  0  0  0
  3 13  1  0  0  0  0
  4  3  2  0  0  0  0
  4  5  1  0  0  0  0
  5 16  1  0  0  0  0
  5  6  1  0  0  0  0
  6  7  1  0  0  0  0
  7  8  1  0  0  0  0
  7 12  1  0  0  0  0
  8  9  1  0  0  0  0
  9 10  1  0  0  0  0
 10  1  1  0  0  0  0
 11 12  1  0  0  0  0
 11 10  1  0  0  0  0
 13  6  2  0  0  0  0
 14  2  1  0  0  0  0
 18 19  1  0  0  0  0
 18 17  1  0  0  0  0
 19 25  1  0  0  0  0
 20 21  1  0  0  0  0
 20 19  2  0  0  0  0
 21 22  2  0  0  0  0
 22 23  1  0  0  0  0
 22 24  1  0  0  0  0
 25 24  2  0  0  0  0
 26 27  1  0  0  0  0
 27 28  1  0  0  0  0
 28 29  2  0  0  0  0
 30 29  1  0  0  0  0
 31 30  2  0  0  0  0
 32 27  2  0  0  0  0
 32 31  1  0  0  0  0
 33 32  1  0  0  0  0
M  END
>  <MODEL>
4

>  <REMARK>
 VINA RESULT:      -9.9      3.491      7.093
  Name = CHEMBL4077644-3.5
  6 active torsions:
  status: ('A' for Active; 'I' for Inactive)
    1  A    between atoms: C_9  and  N_10
    2  A    between atoms: N_10  and  C_11
    3  A    between atoms: N_10  and  C_20
    4  A    between atoms: C_11  and  C_12
    5  A    between atoms: C_12  and  C_13
    6  A    between atoms: C_20  and  C_21
                            x       y       z     vdW  Elec       q    Type
                         _______ _______ _______ _____ _____    ______ ____

>  <TORSDO>
F 6

>  <rfscore_v2>
7.349326010101016

>  <vina_affinity>
-9.482530840944541

>  <vina_gauss1>
100.77639039365275

>  <vina_gauss2>
1368.7128519160672

>  <vina_repulsion>
0.8931081556288284

>  <vina_hydrophobic>
76.16692847617244

>  <vina_hydrogen>
0.4045196140199238

>  <vina_intra_gauss1>
44.85831005931101

>  <vina_intra_gauss2>
270.4270965929418

>  <vina_intra_repulsion>
1.9685110372560573

>  <vina_intra_hydrophobic>
27.794243532061678

>  <vina_intra_hydrogen>
0.0

>  <vina_num_rotors>
6.0

>  <rfscore_v3>
6.9370206309801254

>  <PLEClinear_p5_l1_s65536>
1.8694637818490574

>  <nnscore>
7.204086255603636

$$$$
CHEMBL4077644-3.5
 OpenBabel12202021063D

 33 36  0  0  0  0  0  0  0  0999 V2000
   -0.8690   47.7230   68.4160 N   0  0  0  0  0  0  0  0  0  0  0  0
    3.6580   49.3180   61.7890 N   0  0  0  0  0  0  0  0  0  0  0  0
    2.6430   49.5930   62.5960 C   0  0  0  0  0  0  0  0  0  0  0  0
    1.8280   50.6320   62.4690 N   0  0  0  0  0  0  0  0  0  0  0  0
    0.9740   50.4080   63.4680 N   0  0  0  0  0  0  0  0  0  0  0  0
    1.3070   49.3070   64.1910 C   0  0  0  0  0  0  0  0  0  0  0  0
    0.5660   48.8520   65.2460 N   0  0  0  0  0  0  0  0  0  0  0  0
   -0.3510   49.7110   65.9870 C   0  0  0  0  0  2  0  0  0  0  0  0
    0.1110   49.8710   67.4310 C   0  0  0  0  0  2  0  0  0  0  0  0
    0.3770   48.5080   68.1330 C   0  0  0  0  0  3  0  0  0  0  0  0
    1.4560   47.8370   67.2600 C   0  0  0  0  0  2  0  0  0  0  0  0
    0.9160   47.5710   65.8610 C   0  0  0  0  0  2  0  0  0  0  0  0
    2.3840   48.7740   63.6500 N   0  0  0  0  0  0  0  0  0  0  0  0
    3.9720   50.0650   61.1800 H   0  0  0  0  0  0  0  0  0  0  0  0
    4.3760   48.6920   62.1190 H   0  0  0  0  0  0  0  0  0  0  0  0
    0.1710   51.0090   63.5740 H   0  0  0  0  0  0  0  0  0  0  0  0
   -0.6020   46.3610   68.9510 C   0  0  0  0  0  2  0  0  0  0  0  0
   -0.7370   46.2260   70.4910 C   0  0  0  0  0  2  0  0  0  0  0  0
   -1.9420   45.4130   70.8970 C   0  0  0  0  0  0  0  0  0  0  0  0
   -2.8500   44.9280   69.9420 C   0  0  0  0  0  3  0  0  0  0  0  0
   -3.9990   44.2460   70.3460 C   0  0  0  0  0  3  0  0  0  0  0  0
   -4.2390   44.0450   71.7040 C   0  0  0  0  0  0  0  0  0  0  0  0
   -5.6830   43.2610   72.2130 Cl  0  0  0  0  0  0  0  0  0  0  0  0
   -3.3270   44.4930   72.6570 C   0  0  0  0  0  3  0  0  0  0  0  0
   -2.1770   45.1700   72.2540 C   0  0  0  0  0  3  0  0  0  0  0  0
   -1.8630   48.4390   69.2710 C   0  0  0  0  0  2  0  0  0  0  0  0
   -3.2190   48.7620   68.6400 C   0  0  0  0  0  0  0  0  0  0  0  0
   -4.0770   47.7140   68.2790 C   0  0  0  0  0  3  0  0  0  0  0  0
   -5.2820   47.9070   67.6160 C   0  0  0  0  0  3  0  0  0  0  0  0
   -5.6910   49.2010   67.3440 C   0  0  0  0  0  3  0  0  0  0  0  0
   -4.8940   50.2730   67.7480 C   0  0  0  0  0  3  0  0  0  0  0  0
   -3.6750   50.0660   68.4040 C   0  0  0  0  0  0  0  0  0  0  0  0
   -2.8520   51.4830   68.9410 Cl  0  0  0  0  0  0  0  0  0  0  0  0
  1 17  1  0  0  0  0
  1 26  1  0  0  0  0
  2 15  1  0  0  0  0
  2  3  1  0  0  0  0
  3 13  1  0  0  0  0
  4  3  2  0  0  0  0
  4  5  1  0  0  0  0
  5 16  1  0  0  0  0
  5  6  1  0  0  0  0
  6  7  1  0  0  0  0
  7 12  1  0  0  0  0
  7  8  1  0  0  0  0
  8  9  1  0  0  0  0
  9 10  1  0  0  0  0
 10  1  1  0  0  0  0
 11 10  1  0  0  0  0
 12 11  1  0  0  0  0
 13  6  2  0  0  0  0
 14  2  1  0  0  0  0
 17 18  1  0  0  0  0
 18 19  1  0  0  0  0
 19 25  1  0  0  0  0
 20 21  1  0  0  0  0
 20 19  2  0  0  0  0
 21 22  2  0  0  0  0
 22 23  1  0  0  0  0
 22 24  1  0  0  0  0
 25 24  2  0  0  0  0
 27 26  1  0  0  0  0
 28 27  2  0  0  0  0
 29 28  1  0  0  0  0
 30 29  2  0  0  0  0
 30 31  1  0  0  0  0
 31 32  2  0  0  0  0
 32 27  1  0  0  0  0
 32 33  1  0  0  0  0
M  END
>  <MODEL>
5

>  <REMARK>
 VINA RESULT:      -9.7      2.990      5.867
  Name = CHEMBL4077644-3.5
  6 active torsions:
  status: ('A' for Active; 'I' for Inactive)
    1  A    between atoms: C_9  and  N_10
    2  A    between atoms: N_10  and  C_11
    3  A    between atoms: N_10  and  C_20
    4  A    between atoms: C_11  and  C_12
    5  A    between atoms: C_12  and  C_13
    6  A    between atoms: C_20  and  C_21
                            x       y       z     vdW  Elec       q    Type
                         _______ _______ _______ _____ _____    ______ ____

>  <TORSDO>
F 6

>  <rfscore_v2>
7.333348066378064

>  <vina_affinity>
-9.002782759516283

>  <vina_gauss1>
94.87248222246086

>  <vina_gauss2>
1536.180208586116

>  <vina_repulsion>
0.8071939207248556

>  <vina_hydrophobic>
43.779263763288085

>  <vina_hydrogen>
0.0

>  <vina_intra_gauss1>
44.7156108608379

>  <vina_intra_gauss2>
286.4665088354223

>  <vina_intra_repulsion>
0.5621678768123318

>  <vina_intra_hydrophobic>
30.07271482113553

>  <vina_intra_hydrogen>
0.0

>  <vina_num_rotors>
6.0

>  <rfscore_v3>
7.205449129759127

>  <PLEClinear_p5_l1_s65536>
5.057000444644922

>  <nnscore>
6.9716611365652685

$$$$
CHEMBL4077644-3.5
 OpenBabel12202021063D

 33 36  0  0  0  0  0  0  0  0999 V2000
   -1.3020   48.8650   67.4810 N   0  0  0  0  0  0  0  0  0  0  0  0
    4.6670   48.0670   61.9400 N   0  0  0  0  0  0  0  0  0  0  0  0
    3.6210   48.7130   62.4370 C   0  0  0  0  0  0  0  0  0  0  0  0
    3.1400   49.8580   61.9690 N   0  0  0  0  0  0  0  0  0  0  0  0
    2.0820   50.0320   62.7610 N   0  0  0  0  0  0  0  0  0  0  0  0
    1.9760   49.0520   63.6970 C   0  0  0  0  0  0  0  0  0  0  0  0
    0.9550   48.9930   64.6040 N   0  0  0  0  0  0  0  0  0  0  0  0
    0.1650   50.1620   64.9740 C   0  0  0  0  0  2  0  0  0  0  0  0
    0.3660   50.5050   66.4450 C   0  0  0  0  0  2  0  0  0  0  0  0
    0.1340   49.2860   67.3850 C   0  0  0  0  0  3  0  0  0  0  0  0
    1.1520   48.2340   66.8990 C   0  0  0  0  0  2  0  0  0  0  0  0
    0.8400   47.8160   65.4680 C   0  0  0  0  0  2  0  0  0  0  0  0
    2.9630   48.2000   63.5110 N   0  0  0  0  0  0  0  0  0  0  0  0
    5.2730   48.5890   61.3190 H   0  0  0  0  0  0  0  0  0  0  0  0
    5.1230   47.3790   62.5200 H   0  0  0  0  0  0  0  0  0  0  0  0
    1.4550   50.8020   62.5850 H   0  0  0  0  0  0  0  0  0  0  0  0
   -1.6500   48.2390   68.7850 C   0  0  0  0  0  2  0  0  0  0  0  0
   -1.4530   46.7010   68.8440 C   0  0  0  0  0  2  0  0  0  0  0  0
   -2.7590   45.9550   68.9710 C   0  0  0  0  0  0  0  0  0  0  0  0
   -3.8450   46.2370   68.1260 C   0  0  0  0  0  3  0  0  0  0  0  0
   -5.0680   45.5900   68.3140 C   0  0  0  0  0  3  0  0  0  0  0  0
   -5.2050   44.6600   69.3420 C   0  0  0  0  0  0  0  0  0  0  0  0
   -6.7260   43.9070   69.6200 Cl  0  0  0  0  0  0  0  0  0  0  0  0
   -4.1230   44.3510   70.1640 C   0  0  0  0  0  3  0  0  0  0  0  0
   -2.9010   44.9920   69.9750 C   0  0  0  0  0  3  0  0  0  0  0  0
   -2.2800   49.9400   67.1360 C   0  0  0  0  0  2  0  0  0  0  0  0
   -3.6830   49.4960   66.7180 C   0  0  0  0  0  0  0  0  0  0  0  0
   -4.7870   49.9000   67.4830 C   0  0  0  0  0  3  0  0  0  0  0  0
   -6.0850   49.4700   67.2370 C   0  0  0  0  0  3  0  0  0  0  0  0
   -6.3170   48.6450   66.1490 C   0  0  0  0  0  3  0  0  0  0  0  0
   -5.2510   48.2770   65.3270 C   0  0  0  0  0  3  0  0  0  0  0  0
   -3.9450   48.7050   65.5920 C   0  0  0  0  0  0  0  0  0  0  0  0
   -2.7500   48.2640   64.4300 Cl  0  0  0  0  0  0  0  0  0  0  0  0
  1 17  1  0  0  0  0
  2  3  1  0  0  0  0
  2 15  1  0  0  0  0
  3 13  1  0  0  0  0
  4  3  2  0  0  0  0
  4  5  1  0  0  0  0
  5  6  1  0  0  0  0
  6  7  1  0  0  0  0
  7  8  1  0  0  0  0
  7 12  1  0  0  0  0
  8  9  1  0  0  0  0
  9 10  1  0  0  0  0
 10  1  1  0  0  0  0
 11 10  1  0  0  0  0
 12 11  1  0  0  0  0
 13  6  2  0  0  0  0
 14  2  1  0  0  0  0
 16  5  1  0  0  0  0
 17 18  1  0  0  0  0
 18 19  1  0  0  0  0
 19 25  1  0  0  0  0
 20 21  1  0  0  0  0
 20 19  2  0  0  0  0
 21 22  2  0  0  0  0
 22 23  1  0  0  0  0
 22 24  1  0  0  0  0
 25 24  2  0  0  0  0
 26  1  1  0  0  0  0
 27 26  1  0  0  0  0
 27 28  1  0  0  0  0
 29 28  2  0  0  0  0
 30 29  1  0  0  0  0
 31 32  1  0  0  0  0
 31 30  2  0  0  0  0
 32 27  2  0  0  0  0
 33 32  1  0  0  0  0
M  END
>  <MODEL>
6

>  <REMARK>
 VINA RESULT:      -9.6      3.316      5.759
  Name = CHEMBL4077644-3.5
  6 active torsions:
  status: ('A' for Active; 'I' for Inactive)
    1  A    between atoms: C_9  and  N_10
    2  A    between atoms: N_10  and  C_11
    3  A    between atoms: N_10  and  C_20
    4  A    between atoms: C_11  and  C_12
    5  A    between atoms: C_12  and  C_13
    6  A    between atoms: C_20  and  C_21
                            x       y       z     vdW  Elec       q    Type
                         _______ _______ _______ _____ _____    ______ ____

>  <TORSDO>
F 6

>  <rfscore_v2>
7.255702353979356

>  <vina_affinity>
-8.75303929608577

>  <vina_gauss1>
85.40568898576268

>  <vina_gauss2>
1380.7067431869993

>  <vina_repulsion>
0.16872108073035683

>  <vina_hydrophobic>
51.344514931262346

>  <vina_hydrogen>
0.0

>  <vina_intra_gauss1>
55.88792678177457

>  <vina_intra_gauss2>
285.33951756567853

>  <vina_intra_repulsion>
1.0317094056227347

>  <vina_intra_hydrophobic>
41.08473250752096

>  <vina_intra_hydrogen>
0.0

>  <vina_num_rotors>
6.0

>  <rfscore_v3>
6.783885583583085

>  <PLEClinear_p5_l1_s65536>
3.8077336039406022

>  <nnscore>
6.207937410928456

$$$$
CHEMBL4077644-3.5
 OpenBabel12202021063D

 33 36  0  0  0  0  0  0  0  0999 V2000
   -1.2910   47.9870   68.4610 N   0  0  0  0  0  0  0  0  0  0  0  0
    5.7930   45.9320   72.0060 N   0  0  0  0  0  0  0  0  0  0  0  0
    4.5660   46.4330   72.0640 C   0  0  0  0  0  0  0  0  0  0  0  0
    3.9650   46.8500   73.1710 N   0  0  0  0  0  0  0  0  0  0  0  0
    2.8120   47.3040   72.6780 N   0  0  0  0  0  0  0  0  0  0  0  0
    2.7170   47.1110   71.3360 C   0  0  0  0  0  0  0  0  0  0  0  0
    1.6430   47.5210   70.5970 N   0  0  0  0  0  0  0  0  0  0  0  0
    0.3320   47.7690   71.1880 C   0  0  0  0  0  2  0  0  0  0  0  0
   -0.6990   46.7880   70.6420 C   0  0  0  0  0  2  0  0  0  0  0  0
   -0.7260   46.7470   69.0870 C   0  0  0  0  0  3  0  0  0  0  0  0
    0.7100   46.3440   68.6930 C   0  0  0  0  0  2  0  0  0  0  0  0
    1.7010   47.4110   69.1380 C   0  0  0  0  0  2  0  0  0  0  0  0
    3.8320   46.5430   70.9240 N   0  0  0  0  0  0  0  0  0  0  0  0
    6.2060   45.6350   72.8810 H   0  0  0  0  0  0  0  0  0  0  0  0
    6.0500   45.3900   71.1940 H   0  0  0  0  0  0  0  0  0  0  0  0
    2.1620   47.7680   73.2930 H   0  0  0  0  0  0  0  0  0  0  0  0
   -1.0710   48.0620   66.9910 C   0  0  0  0  0  2  0  0  0  0  0  0
   -0.1480   49.2200   66.5290 C   0  0  0  0  0  2  0  0  0  0  0  0
    0.7560   48.8180   65.3880 C   0  0  0  0  0  0  0  0  0  0  0  0
    1.3250   47.5360   65.3260 C   0  0  0  0  0  3  0  0  0  0  0  0
    2.2200   47.2130   64.3040 C   0  0  0  0  0  3  0  0  0  0  0  0
    2.5430   48.1690   63.3430 C   0  0  0  0  0  0  0  0  0  0  0  0
    3.6920   47.7990   62.1180 Cl  0  0  0  0  0  0  0  0  0  0  0  0
    1.9570   49.4320   63.3780 C   0  0  0  0  0  3  0  0  0  0  0  0
    1.0590   49.7540   64.3940 C   0  0  0  0  0  3  0  0  0  0  0  0
   -2.7250   48.2420   68.7930 C   0  0  0  0  0  2  0  0  0  0  0  0
   -3.7750   47.5830   67.8960 C   0  0  0  0  0  0  0  0  0  0  0  0
   -4.2180   48.2560   66.7490 C   0  0  0  0  0  3  0  0  0  0  0  0
   -5.2340   47.7800   65.9300 C   0  0  0  0  0  3  0  0  0  0  0  0
   -5.8040   46.5530   66.2210 C   0  0  0  0  0  3  0  0  0  0  0  0
   -5.3400   45.8230   67.3170 C   0  0  0  0  0  3  0  0  0  0  0  0
   -4.3260   46.3190   68.1440 C   0  0  0  0  0  0  0  0  0  0  0  0
   -3.7800   45.2620   69.3920 Cl  0  0  0  0  0  0  0  0  0  0  0  0
  1 26  1  0  0  0  0
  1 10  1  0  0  0  0
  2  3  1  0  0  0  0
  2 14  1  0  0  0  0
  3  4  2  0  0  0  0
  5  4  1  0  0  0  0
  5 16  1  0  0  0  0
  6  5  1  0  0  0  0
  7  8  1  0  0  0  0
  7  6  1  0  0  0  0
  9  8  1  0  0  0  0
 10  9  1  0  0  0  0
 11 10  1  0  0  0  0
 11 12  1  0  0  0  0
 12  7  1  0  0  0  0
 13  6  2  0  0  0  0
 13  3  1  0  0  0  0
 15  2  1  0  0  0  0
 17  1  1  0  0  0  0
 18 17  1  0  0  0  0
 19 18  1  0  0  0  0
 20 19  1  0  0  0  0
 21 20  2  0  0  0  0
 22 24  2  0  0  0  0
 22 21  1  0  0  0  0
 23 22  1  0  0  0  0
 24 25  1  0  0  0  0
 25 19  2  0  0  0  0
 27 32  1  0  0  0  0
 27 26  1  0  0  0  0
 28 27  2  0  0  0  0
 29 30  2  0  0  0  0
 29 28  1  0  0  0  0
 30 31  1  0  0  0  0
 31 32  2  0  0  0  0
 32 33  1  0  0  0  0
M  END
>  <MODEL>
7

>  <REMARK>
 VINA RESULT:      -9.6      1.884      6.204
  Name = CHEMBL4077644-3.5
  6 active torsions:
  status: ('A' for Active; 'I' for Inactive)
    1  A    between atoms: C_9  and  N_10
    2  A    between atoms: N_10  and  C_11
    3  A    between atoms: N_10  and  C_20
    4  A    between atoms: C_11  and  C_12
    5  A    between atoms: C_12  and  C_13
    6  A    between atoms: C_20  and  C_21
                            x       y       z     vdW  Elec       q    Type
                         _______ _______ _______ _____ _____    ______ ____

>  <TORSDO>
F 6

>  <rfscore_v2>
7.740876381673882

>  <vina_affinity>
-9.693422956204747

>  <vina_gauss1>
128.12991153065877

>  <vina_gauss2>
1562.7894349194153

>  <vina_repulsion>
3.419476175484701

>  <vina_hydrophobic>
53.88880374377236

>  <vina_hydrogen>
2.4723322915804413

>  <vina_intra_gauss1>
41.60248967048321

>  <vina_intra_gauss2>
275.4307156242333

>  <vina_intra_repulsion>
1.214280840105324

>  <vina_intra_hydrophobic>
21.312850569828054

>  <vina_intra_hydrogen>
0.0

>  <vina_num_rotors>
6.0

>  <rfscore_v3>
7.47143825585526

>  <PLEClinear_p5_l1_s65536>
7.747434524350505

>  <nnscore>
7.249218897759603

$$$$
CHEMBL4077644-3.5
 OpenBabel12202021063D

 33 36  0  0  0  0  0  0  0  0999 V2000
   -1.9780   49.7530   68.1830 N   0  0  0  0  0  0  0  0  0  0  0  0
    0.2660   53.9530   61.5280 N   0  0  0  0  0  0  0  0  0  0  0  0
   -0.6000   53.1950   62.1870 C   0  0  0  0  0  0  0  0  0  0  0  0
   -1.7940   52.8330   61.7350 N   0  0  0  0  0  0  0  0  0  0  0  0
   -2.2140   52.0480   62.7270 N   0  0  0  0  0  0  0  0  0  0  0  0
   -1.3220   51.9950   63.7510 C   0  0  0  0  0  0  0  0  0  0  0  0
   -1.5120   51.2300   64.8690 N   0  0  0  0  0  0  0  0  0  0  0  0
   -2.8320   50.7810   65.2970 C   0  0  0  0  0  2  0  0  0  0  0  0
   -3.1980   51.3920   66.6440 C   0  0  0  0  0  2  0  0  0  0  0  0
   -2.0980   51.1750   67.7230 C   0  0  0  0  0  3  0  0  0  0  0  0
   -0.8410   51.8340   67.1200 C   0  0  0  0  0  2  0  0  0  0  0  0
   -0.4250   51.1150   65.8430 C   0  0  0  0  0  2  0  0  0  0  0  0
   -0.2810   52.7340   63.4260 N   0  0  0  0  0  0  0  0  0  0  0  0
   -0.0940   54.4760   60.7390 H   0  0  0  0  0  0  0  0  0  0  0  0
    1.0020   54.4020   62.0510 H   0  0  0  0  0  0  0  0  0  0  0  0
   -3.0840   51.5500   62.6270 H   0  0  0  0  0  0  0  0  0  0  0  0
   -3.1670   48.9210   67.8530 C   0  0  0  0  0  2  0  0  0  0  0  0
   -2.8420   47.5070   67.3020 C   0  0  0  0  0  2  0  0  0  0  0  0
   -3.4460   46.4070   68.1410 C   0  0  0  0  0  0  0  0  0  0  0  0
   -4.7690   45.9820   67.9430 C   0  0  0  0  0  3  0  0  0  0  0  0
   -5.3320   45.0180   68.7810 C   0  0  0  0  0  3  0  0  0  0  0  0
   -4.5710   44.4770   69.8160 C   0  0  0  0  0  0  0  0  0  0  0  0
   -5.2770   43.3370   70.8930 Cl  0  0  0  0  0  0  0  0  0  0  0  0
   -3.2470   44.8690   70.0000 C   0  0  0  0  0  3  0  0  0  0  0  0
   -2.6830   45.8270   69.1600 C   0  0  0  0  0  3  0  0  0  0  0  0
   -0.7220   49.0710   67.7490 C   0  0  0  0  0  2  0  0  0  0  0  0
    0.1450   48.4460   68.8430 C   0  0  0  0  0  0  0  0  0  0  0  0
   -0.1750   48.6760   70.1880 C   0  0  0  0  0  3  0  0  0  0  0  0
    0.6070   48.2290   71.2460 C   0  0  0  0  0  3  0  0  0  0  0  0
    1.7300   47.4690   70.9680 C   0  0  0  0  0  3  0  0  0  0  0  0
    2.0420   47.1640   69.6420 C   0  0  0  0  0  3  0  0  0  0  0  0
    1.2540   47.6310   68.5840 C   0  0  0  0  0  0  0  0  0  0  0  0
    1.6970   47.0830   67.0090 Cl  0  0  0  0  0  0  0  0  0  0  0  0
  2 15  1  0  0  0  0
  2  3  1  0  0  0  0
  3 13  1  0  0  0  0
  4  3  2  0  0  0  0
  4  5  1  0  0  0  0
  5  6  1  0  0  0  0
  6  7  1  0  0  0  0
  7  8  1  0  0  0  0
  7 12  1  0  0  0  0
  8  9  1  0  0  0  0
  9 10  1  0  0  0  0
 10  1  1  0  0  0  0
 11 10  1  0  0  0  0
 12 11  1  0  0  0  0
 13  6  2  0  0  0  0
 14  2  1  0  0  0  0
 16  5  1  0  0  0  0
 17  1  1  0  0  0  0
 18 17  1  0  0  0  0
 18 19  1  0  0  0  0
 19 25  1  0  0  0  0
 20 19  2  0  0  0  0
 20 21  1  0  0  0  0
 21 22  2  0  0  0  0
 22 24  1  0  0  0  0
 22 23  1  0  0  0  0
 25 24  2  0  0  0  0
 26  1  1  0  0  0  0
 26 27  1  0  0  0  0
 27 28  1  0  0  0  0
 28 29  2  0  0  0  0
 30 29  1  0  0  0  0
 31 30  2  0  0  0  0
 32 27  2  0  0  0  0
 32 31  1  0  0  0  0
 33 32  1  0  0  0  0
M  END
>  <MODEL>
8

>  <REMARK>
 VINA RESULT:      -9.6      3.500      6.675
  Name = CHEMBL4077644-3.5
  6 active torsions:
  status: ('A' for Active; 'I' for Inactive)
    1  A    between atoms: C_9  and  N_10
    2  A    between atoms: N_10  and  C_11
    3  A    between atoms: N_10  and  C_20
    4  A    between atoms: C_11  and  C_12
    5  A    between atoms: C_12  and  C_13
    6  A    between atoms: C_20  and  C_21
                            x       y       z     vdW  Elec       q    Type
                         _______ _______ _______ _____ _____    ______ ____

>  <TORSDO>
F 6

>  <rfscore_v2>
7.416978430347432

>  <vina_affinity>
-9.65715314757353

>  <vina_gauss1>
107.87325082378405

>  <vina_gauss2>
1385.1770183469935

>  <vina_repulsion>
0.9113750977345234

>  <vina_hydrophobic>
75.49215678929312

>  <vina_hydrogen>
0.2977736578661881

>  <vina_intra_gauss1>
43.805702818360544

>  <vina_intra_gauss2>
291.6488349565192

>  <vina_intra_repulsion>
2.9625380374662695

>  <vina_intra_hydrophobic>
27.628977214303028

>  <vina_intra_hydrogen>
0.0

>  <vina_num_rotors>
6.0

>  <rfscore_v3>
6.993084719613711

>  <PLEClinear_p5_l1_s65536>
3.0338420307967944

>  <nnscore>
6.873215316761952

$$$$
CHEMBL4077644-3.5
 OpenBabel12202021063D

 33 36  0  0  0  0  0  0  0  0999 V2000
   -1.7120   48.9200   67.2830 N   0  0  0  0  0  0  0  0  0  0  0  0
   -2.4590   53.4900   60.5360 N   0  0  0  0  0  0  0  0  0  0  0  0
   -1.7710   53.0830   61.5940 C   0  0  0  0  0  0  0  0  0  0  0  0
   -0.5330   53.4600   61.8880 N   0  0  0  0  0  0  0  0  0  0  0  0
   -0.3450   52.8310   63.0490 N   0  0  0  0  0  0  0  0  0  0  0  0
   -1.4150   52.0680   63.3970 C   0  0  0  0  0  0  0  0  0  0  0  0
   -1.4760   51.3530   64.5610 N   0  0  0  0  0  0  0  0  0  0  0  0
   -0.2830   50.9570   65.3010 C   0  0  0  0  0  2  0  0  0  0  0  0
   -0.1450   49.4390   65.3290 C   0  0  0  0  0  2  0  0  0  0  0  0
   -1.4380   48.7260   65.8220 C   0  0  0  0  0  3  0  0  0  0  0  0
   -2.5250   49.1830   64.8280 C   0  0  0  0  0  2  0  0  0  0  0  0
   -2.7300   50.6900   64.9220 C   0  0  0  0  0  2  0  0  0  0  0  0
   -2.3380   52.2100   62.4680 N   0  0  0  0  0  0  0  0  0  0  0  0
   -1.9330   53.9290   59.7900 H   0  0  0  0  0  0  0  0  0  0  0  0
   -3.2570   52.9460   60.2470 H   0  0  0  0  0  0  0  0  0  0  0  0
    0.5030   52.9960   63.5690 H   0  0  0  0  0  0  0  0  0  0  0  0
   -2.1480   47.6770   67.9740 C   0  0  0  0  0  2  0  0  0  0  0  0
   -3.4360   47.0290   67.4000 C   0  0  0  0  0  2  0  0  0  0  0  0
   -3.9960   45.9560   68.3020 C   0  0  0  0  0  0  0  0  0  0  0  0
   -5.3140   45.4960   68.1570 C   0  0  0  0  0  3  0  0  0  0  0  0
   -5.8350   44.5600   69.0530 C   0  0  0  0  0  3  0  0  0  0  0  0
   -5.0380   44.0820   70.0910 C   0  0  0  0  0  0  0  0  0  0  0  0
   -5.6930   42.9780   71.2360 Cl  0  0  0  0  0  0  0  0  0  0  0  0
   -3.7180   44.5080   70.2220 C   0  0  0  0  0  3  0  0  0  0  0  0
   -3.1960   45.4380   69.3260 C   0  0  0  0  0  3  0  0  0  0  0  0
   -0.6000   49.5770   68.0330 C   0  0  0  0  0  2  0  0  0  0  0  0
    0.2680   48.6800   68.9180 C   0  0  0  0  0  0  0  0  0  0  0  0
    1.2910   47.9210   68.3320 C   0  0  0  0  0  3  0  0  0  0  0  0
    2.0660   47.0090   69.0380 C   0  0  0  0  0  3  0  0  0  0  0  0
    1.8620   46.8790   70.4010 C   0  0  0  0  0  3  0  0  0  0  0  0
    0.8970   47.6680   71.0300 C   0  0  0  0  0  3  0  0  0  0  0  0
    0.1130   48.5730   70.3060 C   0  0  0  0  0  0  0  0  0  0  0  0
   -0.9590   49.5570   71.2300 Cl  0  0  0  0  0  0  0  0  0  0  0  0
  1 17  1  0  0  0  0
  1 26  1  0  0  0  0
  2  3  1  0  0  0  0
  3  4  2  0  0  0  0
  3 13  1  0  0  0  0
  4  5  1  0  0  0  0
  5  6  1  0  0  0  0
  5 16  1  0  0  0  0
  6  7  1  0  0  0  0
  7 12  1  0  0  0  0
  7  8  1  0  0  0  0
  8  9  1  0  0  0  0
  9 10  1  0  0  0  0
 10  1  1  0  0  0  0
 11 12  1  0  0  0  0
 11 10  1  0  0  0  0
 13  6  2  0  0  0  0
 14  2  1  0  0  0  0
 15  2  1  0  0  0  0
 18 17  1  0  0  0  0
 18 19  1  0  0  0  0
 19 25  1  0  0  0  0
 20 19  2  0  0  0  0
 20 21  1  0  0  0  0
 21 22  2  0  0  0  0
 22 24  1  0  0  0  0
 22 23  1  0  0  0  0
 25 24  2  0  0  0  0
 26 27  1  0  0  0  0
 27 32  1  0  0  0  0
 28 27  2  0  0  0  0
 28 29  1  0  0  0  0
 29 30  2  0  0  0  0
 30 31  1  0  0  0  0
 32 31  2  0  0  0  0
 32 33  1  0  0  0  0
M  END
>  <MODEL>
9

>  <REMARK>
 VINA RESULT:      -9.3      3.458      6.809
  Name = CHEMBL4077644-3.5
  6 active torsions:
  status: ('A' for Active; 'I' for Inactive)
    1  A    between atoms: C_9  and  N_10
    2  A    between atoms: N_10  and  C_11
    3  A    between atoms: N_10  and  C_20
    4  A    between atoms: C_11  and  C_12
    5  A    between atoms: C_12  and  C_13
    6  A    between atoms: C_20  and  C_21
                            x       y       z     vdW  Elec       q    Type
                         _______ _______ _______ _____ _____    ______ ____

>  <TORSDO>
F 6

>  <rfscore_v2>
7.310448490620493

>  <vina_affinity>
-9.421004318871768

>  <vina_gauss1>
105.36668192514583

>  <vina_gauss2>
1351.4280776989563

>  <vina_repulsion>
0.821790484268585

>  <vina_hydrophobic>
76.74239555896196

>  <vina_hydrogen>
0.0

>  <vina_intra_gauss1>
31.51285522606638

>  <vina_intra_gauss2>
266.82360601437813

>  <vina_intra_repulsion>
1.9119088539630793

>  <vina_intra_hydrophobic>
17.518716553169334

>  <vina_intra_hydrogen>
0.0

>  <vina_num_rotors>
6.0

>  <rfscore_v3>
7.038057684260176

>  <PLEClinear_p5_l1_s65536>
3.2176242884539707

>  <nnscore>
6.873817614825848

$$$$
