CHEMBL4084573-3.4
 OpenBabel12202021063D

 36 40  0  0  0  0  0  0  0  0999 V2000
   -1.0750   47.9630   67.1510 N   0  0  0  0  0  0  0  0  0  0  0  0
    3.6170   47.5720   73.8280 N   0  0  0  0  0  0  0  0  0  0  0  0
    3.3460   47.1870   72.5840 C   0  0  0  0  0  0  0  0  0  0  0  0
    4.1420   46.4480   71.8200 N   0  0  0  0  0  0  0  0  0  0  0  0
    3.3940   46.3360   70.7130 N   0  0  0  0  0  0  0  0  0  0  0  0
    2.1980   46.9960   70.8320 C   0  0  0  0  0  0  0  0  0  0  0  0
    1.2550   47.0060   69.8510 N   0  0  0  0  0  0  0  0  0  0  0  0
    1.5800   46.8250   68.4420 C   0  0  0  0  0  2  0  0  0  0  0  0
    1.4150   48.1420   67.6890 C   0  0  0  0  0  2  0  0  0  0  0  0
   -0.0070   48.7450   67.8520 C   0  0  0  0  0  3  0  0  0  0  0  0
   -0.1900   48.9300   69.3780 C   0  0  0  0  0  2  0  0  0  0  0  0
   -0.0540   47.6090   70.1270 C   0  0  0  0  0  2  0  0  0  0  0  0
    2.1470   47.5190   72.0370 N   0  0  0  0  0  0  0  0  0  0  0  0
    4.3370   47.0500   74.3100 H   0  0  0  0  0  0  0  0  0  0  0  0
    2.8240   47.8250   74.4000 H   0  0  0  0  0  0  0  0  0  0  0  0
    3.7320   45.7780   69.9430 H   0  0  0  0  0  0  0  0  0  0  0  0
   -2.4470   48.4120   67.5050 C   0  0  0  0  0  2  0  0  0  0  0  0
   -3.5940   47.5830   66.8810 C   0  0  0  0  0  2  0  0  0  0  0  0
   -4.0870   46.4800   67.7930 C   0  0  0  0  0  0  0  0  0  0  0  0
   -5.3690   45.9350   67.6250 C   0  0  0  0  0  3  0  0  0  0  0  0
   -5.8280   44.9270   68.4760 C   0  0  0  0  0  3  0  0  0  0  0  0
   -5.0100   44.4670   69.5060 C   0  0  0  0  0  0  0  0  0  0  0  0
   -5.5850   43.2460   70.5740 Cl  0  0  0  0  0  0  0  0  0  0  0  0
   -3.7330   44.9940   69.6790 C   0  0  0  0  0  3  0  0  0  0  0  0
   -3.2720   45.9970   68.8250 C   0  0  0  0  0  3  0  0  0  0  0  0
   -0.8910   47.8530   65.6710 C   0  0  0  0  0  2  0  0  0  0  0  0
   -0.3380   49.0720   64.9290 C   0  0  0  0  0  0  0  0  0  0  0  0
   -1.0520   50.2900   65.0150 C   0  0  0  0  0  3  0  0  0  0  0  0
   -0.6920   51.4110   64.2810 C   0  0  0  0  0  3  0  0  0  0  0  0
    0.4200   51.3590   63.4630 C   0  0  0  0  0  3  0  0  0  0  0  0
    1.2070   50.2050   63.4040 C   0  0  0  0  0  0  0  0  0  0  0  0
    2.3540   50.2180   62.5880 C   0  0  0  0  0  3  0  0  0  0  0  0
    3.1920   49.1120   62.5150 C   0  0  0  0  0  3  0  0  0  0  0  0
    2.9060   47.9860   63.2740 C   0  0  0  0  0  3  0  0  0  0  0  0
    1.7710   47.9640   64.0890 C   0  0  0  0  0  3  0  0  0  0  0  0
    0.8640   49.0490   64.1550 C   0  0  0  0  0  0  0  0  0  0  0  0
  1 17  1  0  0  0  0
  1 10  1  0  0  0  0
  2 14  1  0  0  0  0
  2 15  1  0  0  0  0
  3  2  1  0  0  0  0
  4  3  2  0  0  0  0
  5  6  1  0  0  0  0
  5  4  1  0  0  0  0
  6 13  2  0  0  0  0
  7 12  1  0  0  0  0
  7  6  1  0  0  0  0
  8  7  1  0  0  0  0
  9 10  1  0  0  0  0
  9  8  1  0  0  0  0
 10 11  1  0  0  0  0
 11 12  1  0  0  0  0
 13  3  1  0  0  0  0
 16  5  1  0  0  0  0
 18 17  1  0  0  0  0
 18 19  1  0  0  0  0
 19 25  1  0  0  0  0
 20 19  2  0  0  0  0
 20 21  1  0  0  0  0
 21 22  2  0  0  0  0
 22 24  1  0  0  0  0
 22 23  1  0  0  0  0
 25 24  2  0  0  0  0
 26  1  1  0  0  0  0
 27 28  1  0  0  0  0
 27 26  1  0  0  0  0
 29 28  2  0  0  0  0
 30 29  1  0  0  0  0
 31 30  2  0  0  0  0
 31 36  1  0  0  0  0
 32 31  1  0  0  0  0
 33 32  2  0  0  0  0
 33 34  1  0  0  0  0
 34 35  2  0  0  0  0
 35 36  1  0  0  0  0
 36 27  2  0  0  0  0
M  END
>  <MODEL>
1

>  <REMARK>
 VINA RESULT:     -11.0      0.000      0.000
  Name = CHEMBL4084573-3.4
  6 active torsions:
  status: ('A' for Active; 'I' for Inactive)
    1  A    between atoms: C_9  and  N_10
    2  A    between atoms: N_10  and  C_11
    3  A    between atoms: N_10  and  C_20
    4  A    between atoms: C_11  and  C_12
    5  A    between atoms: C_12  and  C_13
    6  A    between atoms: C_20  and  C_21
                            x       y       z     vdW  Elec       q    Type
                         _______ _______ _______ _____ _____    ______ ____

>  <TORSDO>
F 6

>  <rfscore_v2>
7.661436297979804

>  <vina_affinity>
-11.212199602637066

>  <vina_gauss1>
138.16505003217276

>  <vina_gauss2>
1623.4378388757682

>  <vina_repulsion>
3.675006844900169

>  <vina_hydrophobic>
84.98025554952261

>  <vina_hydrogen>
3.3326497671997597

>  <vina_intra_gauss1>
43.301162307078144

>  <vina_intra_gauss2>
321.4318687780849

>  <vina_intra_repulsion>
1.273714293077695

>  <vina_intra_hydrophobic>
34.638753538110656

>  <vina_intra_hydrogen>
0.0

>  <vina_num_rotors>
6.0

>  <rfscore_v3>
7.3554829926184935

>  <PLEClinear_p5_l1_s65536>
5.788620570164359

>  <nnscore>
7.037520458436143

$$$$
CHEMBL4084573-3.4
 OpenBabel12202021063D

 36 40  0  0  0  0  0  0  0  0999 V2000
   -3.3850   48.7900   67.1400 N   0  0  0  0  0  0  0  0  0  0  0  0
   -4.6480   53.5790   60.6420 N   0  0  0  0  0  0  0  0  0  0  0  0
   -4.2850   52.4090   61.1590 C   0  0  0  0  0  0  0  0  0  0  0  0
   -4.0600   51.2990   60.4650 N   0  0  0  0  0  0  0  0  0  0  0  0
   -3.7080   50.4560   61.4450 N   0  0  0  0  0  0  0  0  0  0  0  0
   -3.7330   51.0600   62.6760 C   0  0  0  0  0  0  0  0  0  0  0  0
   -3.3880   50.4170   63.8250 N   0  0  0  0  0  0  0  0  0  0  0  0
   -3.4940   48.9720   63.9840 C   0  0  0  0  0  2  0  0  0  0  0  0
   -4.6440   48.6270   64.9240 C   0  0  0  0  0  2  0  0  0  0  0  0
   -4.5100   49.3230   66.3060 C   0  0  0  0  0  3  0  0  0  0  0  0
   -4.4640   50.8370   65.9880 C   0  0  0  0  0  2  0  0  0  0  0  0
   -3.2970   51.1860   65.0720 C   0  0  0  0  0  2  0  0  0  0  0  0
   -4.0720   52.3170   62.4990 N   0  0  0  0  0  0  0  0  0  0  0  0
   -4.4770   53.7010   59.6520 H   0  0  0  0  0  0  0  0  0  0  0  0
   -4.4600   54.3950   61.2060 H   0  0  0  0  0  0  0  0  0  0  0  0
   -3.4330   49.5130   61.2120 H   0  0  0  0  0  0  0  0  0  0  0  0
   -3.5110   49.1490   68.5780 C   0  0  0  0  0  2  0  0  0  0  0  0
   -2.3980   50.0720   69.1270 C   0  0  0  0  0  2  0  0  0  0  0  0
   -1.1370   49.3170   69.4930 C   0  0  0  0  0  0  0  0  0  0  0  0
   -0.2660   48.8580   68.4920 C   0  0  0  0  0  3  0  0  0  0  0  0
    0.8900   48.1500   68.8300 C   0  0  0  0  0  3  0  0  0  0  0  0
    1.1740   47.8890   70.1690 C   0  0  0  0  0  0  0  0  0  0  0  0
    2.5830   46.9920   70.5850 Cl  0  0  0  0  0  0  0  0  0  0  0  0
    0.3230   48.3460   71.1710 C   0  0  0  0  0  3  0  0  0  0  0  0
   -0.8300   49.0590   70.8350 C   0  0  0  0  0  3  0  0  0  0  0  0
   -3.1130   47.3330   66.9530 C   0  0  0  0  0  2  0  0  0  0  0  0
   -3.9090   46.3430   67.8070 C   0  0  0  0  0  0  0  0  0  0  0  0
   -5.2300   46.0280   67.4120 C   0  0  0  0  0  3  0  0  0  0  0  0
   -6.0650   45.2380   68.1880 C   0  0  0  0  0  3  0  0  0  0  0  0
   -5.5900   44.7040   69.3700 C   0  0  0  0  0  3  0  0  0  0  0  0
   -4.2660   44.9180   69.7660 C   0  0  0  0  0  0  0  0  0  0  0  0
   -3.8180   44.3170   70.9570 C   0  0  0  0  0  3  0  0  0  0  0  0
   -2.5050   44.4660   71.3850 C   0  0  0  0  0  3  0  0  0  0  0  0
   -1.6150   45.2020   70.6140 C   0  0  0  0  0  3  0  0  0  0  0  0
   -2.0490   45.8010   69.4280 C   0  0  0  0  0  3  0  0  0  0  0  0
   -3.3900   45.7150   68.9820 C   0  0  0  0  0  0  0  0  0  0  0  0
  1 17  1  0  0  0  0
  2  3  1  0  0  0  0
  2 15  1  0  0  0  0
  3 13  1  0  0  0  0
  4  3  2  0  0  0  0
  4  5  1  0  0  0  0
  5  6  1  0  0  0  0
  6  7  1  0  0  0  0
  7  8  1  0  0  0  0
  7 12  1  0  0  0  0
  8  9  1  0  0  0  0
  9 10  1  0  0  0  0
 10  1  1  0  0  0  0
 11 10  1  0  0  0  0
 12 11  1  0  0  0  0
 13  6  2  0  0  0  0
 14  2  1  0  0  0  0
 16  5  1  0  0  0  0
 17 18  1  0  0  0  0
 18 19  1  0  0  0  0
 19 25  1  0  0  0  0
 20 21  1  0  0  0  0
 20 19  2  0  0  0  0
 21 22  2  0  0  0  0
 22 23  1  0  0  0  0
 22 24  1  0  0  0  0
 25 24  2  0  0  0  0
 26  1  1  0  0  0  0
 26 27  1  0  0  0  0
 27 36  1  0  0  0  0
 28 27  2  0  0  0  0
 28 29  1  0  0  0  0
 29 30  2  0  0  0  0
 30 31  1  0  0  0  0
 31 32  1  0  0  0  0
 32 33  2  0  0  0  0
 34 33  1  0  0  0  0
 35 34  2  0  0  0  0
 36 35  1  0  0  0  0
 36 31  2  0  0  0  0
M  END
>  <MODEL>
2

>  <REMARK>
 VINA RESULT:     -10.8      4.523      8.792
  Name = CHEMBL4084573-3.4
  6 active torsions:
  status: ('A' for Active; 'I' for Inactive)
    1  A    between atoms: C_9  and  N_10
    2  A    between atoms: N_10  and  C_11
    3  A    between atoms: N_10  and  C_20
    4  A    between atoms: C_11  and  C_12
    5  A    between atoms: C_12  and  C_13
    6  A    between atoms: C_20  and  C_21
                            x       y       z     vdW  Elec       q    Type
                         _______ _______ _______ _____ _____    ______ ____

>  <TORSDO>
F 6

>  <rfscore_v2>
7.340570588356092

>  <vina_affinity>
-10.138940980818557

>  <vina_gauss1>
110.76279782986923

>  <vina_gauss2>
1439.5228510082463

>  <vina_repulsion>
0.7230578564102541

>  <vina_hydrophobic>
83.58929773574327

>  <vina_hydrogen>
0.0

>  <vina_intra_gauss1>
63.416962076216265

>  <vina_intra_gauss2>
329.9025435879638

>  <vina_intra_repulsion>
1.106889626579687

>  <vina_intra_hydrophobic>
61.238500921480735

>  <vina_intra_hydrogen>
0.0

>  <vina_num_rotors>
6.0

>  <rfscore_v3>
6.9591870357420325

>  <PLEClinear_p5_l1_s65536>
2.8483238062307277

>  <nnscore>
6.762811476253361

$$$$
CHEMBL4084573-3.4
 OpenBabel12202021063D

 36 40  0  0  0  0  0  0  0  0999 V2000
   -1.2940   49.3490   65.5450 N   0  0  0  0  0  0  0  0  0  0  0  0
   -2.1180   54.6010   59.3410 N   0  0  0  0  0  0  0  0  0  0  0  0
   -1.5170   54.2330   60.4690 C   0  0  0  0  0  0  0  0  0  0  0  0
   -0.4280   54.7980   60.9770 N   0  0  0  0  0  0  0  0  0  0  0  0
   -0.2720   54.0800   62.0980 N   0  0  0  0  0  0  0  0  0  0  0  0
   -1.2420   53.1210   62.2330 C   0  0  0  0  0  0  0  0  0  0  0  0
   -1.3140   52.2830   63.3030 N   0  0  0  0  0  0  0  0  0  0  0  0
   -0.1500   51.9220   64.1020 C   0  0  0  0  0  2  0  0  0  0  0  0
    0.2410   50.4710   63.8390 C   0  0  0  0  0  2  0  0  0  0  0  0
   -0.9310   49.4840   64.0980 C   0  0  0  0  0  3  0  0  0  0  0  0
   -2.0640   49.9530   63.1530 C   0  0  0  0  0  2  0  0  0  0  0  0
   -2.4740   51.3940   63.4350 C   0  0  0  0  0  2  0  0  0  0  0  0
   -2.0600   53.2310   61.2100 N   0  0  0  0  0  0  0  0  0  0  0  0
   -1.8990   55.5270   59.0010 H   0  0  0  0  0  0  0  0  0  0  0  0
   -3.0880   54.3340   59.2440 H   0  0  0  0  0  0  0  0  0  0  0  0
    0.4770   54.3120   62.7340 H   0  0  0  0  0  0  0  0  0  0  0  0
   -1.8640   48.0160   65.8760 C   0  0  0  0  0  2  0  0  0  0  0  0
   -3.3500   48.0220   66.3020 C   0  0  0  0  0  2  0  0  0  0  0  0
   -3.6600   46.9920   67.3680 C   0  0  0  0  0  0  0  0  0  0  0  0
   -2.7000   46.6570   68.3360 C   0  0  0  0  0  3  0  0  0  0  0  0
   -2.9810   45.6970   69.3110 C   0  0  0  0  0  3  0  0  0  0  0  0
   -4.2200   45.0600   69.3150 C   0  0  0  0  0  0  0  0  0  0  0  0
   -4.5580   43.8550   70.4970 Cl  0  0  0  0  0  0  0  0  0  0  0  0
   -5.1840   45.3880   68.3660 C   0  0  0  0  0  3  0  0  0  0  0  0
   -4.9060   46.3520   67.3950 C   0  0  0  0  0  3  0  0  0  0  0  0
   -0.2070   49.7400   66.4950 C   0  0  0  0  0  2  0  0  0  0  0  0
   -0.4460   49.5030   67.9880 C   0  0  0  0  0  0  0  0  0  0  0  0
   -1.5110   50.1900   68.6140 C   0  0  0  0  0  3  0  0  0  0  0  0
   -1.7270   50.1290   69.9830 C   0  0  0  0  0  3  0  0  0  0  0  0
   -0.9020   49.3460   70.7670 C   0  0  0  0  0  3  0  0  0  0  0  0
    0.1160   48.5830   70.1860 C   0  0  0  0  0  0  0  0  0  0  0  0
    0.9010   47.7670   71.0230 C   0  0  0  0  0  3  0  0  0  0  0  0
    1.9060   46.9620   70.5000 C   0  0  0  0  0  3  0  0  0  0  0  0
    2.1230   46.9450   69.1290 C   0  0  0  0  0  3  0  0  0  0  0  0
    1.3480   47.7490   68.2890 C   0  0  0  0  0  3  0  0  0  0  0  0
    0.3480   48.6210   68.7850 C   0  0  0  0  0  0  0  0  0  0  0  0
  1 17  1  0  0  0  0
  1 26  1  0  0  0  0
  2  3  1  0  0  0  0
  3  4  2  0  0  0  0
  3 13  1  0  0  0  0
  4  5  1  0  0  0  0
  5  6  1  0  0  0  0
  5 16  1  0  0  0  0
  6  7  1  0  0  0  0
  7 12  1  0  0  0  0
  7  8  1  0  0  0  0
  9 10  1  0  0  0  0
  9  8  1  0  0  0  0
 10  1  1  0  0  0  0
 11 12  1  0  0  0  0
 11 10  1  0  0  0  0
 13  6  2  0  0  0  0
 14  2  1  0  0  0  0
 15  2  1  0  0  0  0
 17 18  1  0  0  0  0
 18 19  1  0  0  0  0
 19 25  2  0  0  0  0
 19 20  1  0  0  0  0
 20 21  2  0  0  0  0
 21 22  1  0  0  0  0
 22 23  1  0  0  0  0
 24 22  2  0  0  0  0
 25 24  1  0  0  0  0
 26 27  1  0  0  0  0
 27 28  2  0  0  0  0
 27 36  1  0  0  0  0
 28 29  1  0  0  0  0
 29 30  2  0  0  0  0
 31 30  1  0  0  0  0
 31 32  1  0  0  0  0
 33 32  2  0  0  0  0
 34 33  1  0  0  0  0
 35 36  1  0  0  0  0
 35 34  2  0  0  0  0
 36 31  2  0  0  0  0
M  END
>  <MODEL>
3

>  <REMARK>
 VINA RESULT:     -10.7      3.577      7.515
  Name = CHEMBL4084573-3.4
  6 active torsions:
  status: ('A' for Active; 'I' for Inactive)
    1  A    between atoms: C_9  and  N_10
    2  A    between atoms: N_10  and  C_11
    3  A    between atoms: N_10  and  C_20
    4  A    between atoms: C_11  and  C_12
    5  A    between atoms: C_12  and  C_13
    6  A    between atoms: C_20  and  C_21
                            x       y       z     vdW  Elec       q    Type
                         _______ _______ _______ _____ _____    ______ ____

>  <TORSDO>
F 6

>  <rfscore_v2>
7.279310885281388

>  <vina_affinity>
-10.180845796187054

>  <vina_gauss1>
120.79176354606113

>  <vina_gauss2>
1416.9761646640993

>  <vina_repulsion>
1.0397718040126716

>  <vina_hydrophobic>
85.92442148469588

>  <vina_hydrogen>
0.0

>  <vina_intra_gauss1>
51.46743504938904

>  <vina_intra_gauss2>
328.27048599828265

>  <vina_intra_repulsion>
0.9794344082785349

>  <vina_intra_hydrophobic>
61.43042489681718

>  <vina_intra_hydrogen>
0.0

>  <vina_num_rotors>
6.0

>  <rfscore_v3>
6.89865819480519

>  <PLEClinear_p5_l1_s65536>
2.6646838657682093

>  <nnscore>
6.950663135150552

$$$$
CHEMBL4084573-3.4
 OpenBabel12202021063D

 36 40  0  0  0  0  0  0  0  0999 V2000
   -1.2800   47.8670   68.1580 N   0  0  0  0  0  0  0  0  0  0  0  0
    5.5400   45.8660   72.1870 N   0  0  0  0  0  0  0  0  0  0  0  0
    4.3560   46.4700   72.1520 C   0  0  0  0  0  0  0  0  0  0  0  0
    3.7330   46.9970   73.2000 N   0  0  0  0  0  0  0  0  0  0  0  0
    2.6290   47.4840   72.6180 N   0  0  0  0  0  0  0  0  0  0  0  0
    2.6110   47.2430   71.2670 C   0  0  0  0  0  0  0  0  0  0  0  0
    1.6070   47.6650   70.4510 N   0  0  0  0  0  0  0  0  0  0  0  0
    0.2500   47.9020   70.9270 C   0  0  0  0  0  2  0  0  0  0  0  0
   -0.6880   46.8170   70.4100 C   0  0  0  0  0  2  0  0  0  0  0  0
   -0.6620   46.6970   68.8610 C   0  0  0  0  0  3  0  0  0  0  0  0
    0.8150   46.3940   68.5090 C   0  0  0  0  0  2  0  0  0  0  0  0
    1.7490   47.4940   69.0010 C   0  0  0  0  0  2  0  0  0  0  0  0
    3.7260   46.6200   70.9570 N   0  0  0  0  0  0  0  0  0  0  0  0
    6.1160   46.0600   72.9950 H   0  0  0  0  0  0  0  0  0  0  0  0
    6.0430   45.8180   71.3120 H   0  0  0  0  0  0  0  0  0  0  0  0
    1.9580   47.9920   73.1750 H   0  0  0  0  0  0  0  0  0  0  0  0
   -1.1390   47.7930   66.6790 C   0  0  0  0  0  2  0  0  0  0  0  0
   -0.5710   49.0640   66.0070 C   0  0  0  0  0  2  0  0  0  0  0  0
    0.5680   48.7660   65.0550 C   0  0  0  0  0  0  0  0  0  0  0  0
    1.2020   47.5130   65.0720 C   0  0  0  0  0  3  0  0  0  0  0  0
    2.2620   47.2430   64.2040 C   0  0  0  0  0  3  0  0  0  0  0  0
    2.7000   48.2280   63.3220 C   0  0  0  0  0  0  0  0  0  0  0  0
    4.0250   47.9080   62.2710 Cl  0  0  0  0  0  0  0  0  0  0  0  0
    2.0760   49.4720   63.2890 C   0  0  0  0  0  3  0  0  0  0  0  0
    1.0110   49.7410   64.1530 C   0  0  0  0  0  3  0  0  0  0  0  0
   -2.6870   48.1620   68.5680 C   0  0  0  0  0  2  0  0  0  0  0  0
   -3.8090   47.3790   67.8830 C   0  0  0  0  0  0  0  0  0  0  0  0
   -4.2560   47.8180   66.6150 C   0  0  0  0  0  3  0  0  0  0  0  0
   -5.3450   47.2440   65.9760 C   0  0  0  0  0  3  0  0  0  0  0  0
   -6.0010   46.1840   66.5700 C   0  0  0  0  0  3  0  0  0  0  0  0
   -5.5490   45.6590   67.7850 C   0  0  0  0  0  0  0  0  0  0  0  0
   -6.2250   44.5500   68.3280 C   0  0  0  0  0  3  0  0  0  0  0  0
   -5.8020   43.9650   69.5150 C   0  0  0  0  0  3  0  0  0  0  0  0
   -4.6830   44.4680   70.1640 C   0  0  0  0  0  3  0  0  0  0  0  0
   -4.0030   45.5670   69.6320 C   0  0  0  0  0  3  0  0  0  0  0  0
   -4.4290   46.2240   68.4520 C   0  0  0  0  0  0  0  0  0  0  0  0
  1 26  1  0  0  0  0
  1 10  1  0  0  0  0
  2 14  1  0  0  0  0
  3  2  1  0  0  0  0
  3  4  2  0  0  0  0
  5 16  1  0  0  0  0
  5  4  1  0  0  0  0
  6  5  1  0  0  0  0
  7  8  1  0  0  0  0
  7  6  1  0  0  0  0
  9  8  1  0  0  0  0
 10  9  1  0  0  0  0
 11 10  1  0  0  0  0
 11 12  1  0  0  0  0
 12  7  1  0  0  0  0
 13  6  2  0  0  0  0
 13  3  1  0  0  0  0
 15  2  1  0  0  0  0
 17  1  1  0  0  0  0
 18 17  1  0  0  0  0
 19 20  1  0  0  0  0
 19 18  1  0  0  0  0
 21 20  2  0  0  0  0
 22 21  1  0  0  0  0
 23 22  1  0  0  0  0
 24 22  2  0  0  0  0
 24 25  1  0  0  0  0
 25 19  2  0  0  0  0
 27 36  1  0  0  0  0
 27 26  1  0  0  0  0
 28 27  2  0  0  0  0
 29 30  2  0  0  0  0
 29 28  1  0  0  0  0
 30 31  1  0  0  0  0
 31 32  2  0  0  0  0
 31 36  1  0  0  0  0
 32 33  1  0  0  0  0
 33 34  2  0  0  0  0
 35 34  1  0  0  0  0
 36 35  2  0  0  0  0
M  END
>  <MODEL>
4

>  <REMARK>
 VINA RESULT:     -10.6      2.610      6.736
  Name = CHEMBL4084573-3.4
  6 active torsions:
  status: ('A' for Active; 'I' for Inactive)
    1  A    between atoms: C_9  and  N_10
    2  A    between atoms: N_10  and  C_11
    3  A    between atoms: N_10  and  C_20
    4  A    between atoms: C_11  and  C_12
    5  A    between atoms: C_12  and  C_13
    6  A    between atoms: C_20  and  C_21
                            x       y       z     vdW  Elec       q    Type
                         _______ _______ _______ _____ _____    ______ ____

>  <TORSDO>
F 6

>  <rfscore_v2>
7.690780063769572

>  <vina_affinity>
-10.932376570919603

>  <vina_gauss1>
144.58028361708614

>  <vina_gauss2>
1677.3581434838654

>  <vina_repulsion>
4.062408106629118

>  <vina_hydrophobic>
79.34902415400362

>  <vina_hydrogen>
2.7166723882969435

>  <vina_intra_gauss1>
47.71818498633964

>  <vina_intra_gauss2>
319.56271860996253

>  <vina_intra_repulsion>
1.1316052666775966

>  <vina_intra_hydrophobic>
33.79420137683403

>  <vina_intra_hydrogen>
0.0

>  <vina_num_rotors>
6.0

>  <rfscore_v3>
7.553101542402041

>  <PLEClinear_p5_l1_s65536>
8.141073540959155

>  <nnscore>
7.681447057586499

$$$$
CHEMBL4084573-3.4
 OpenBabel12202021063D

 36 40  0  0  0  0  0  0  0  0999 V2000
   -1.0650   49.2160   65.5540 N   0  0  0  0  0  0  0  0  0  0  0  0
   -9.0240   48.8890   63.7380 N   0  0  0  0  0  0  0  0  0  0  0  0
   -8.0430   49.2440   64.5620 C   0  0  0  0  0  0  0  0  0  0  0  0
   -8.1840   50.0110   65.6370 N   0  0  0  0  0  0  0  0  0  0  0  0
   -6.9270   50.0270   66.1010 N   0  0  0  0  0  0  0  0  0  0  0  0
   -6.0780   49.2910   65.3140 C   0  0  0  0  0  0  0  0  0  0  0  0
   -4.7570   49.1300   65.5940 N   0  0  0  0  0  0  0  0  0  0  0  0
   -3.9920   50.0980   66.3700 C   0  0  0  0  0  2  0  0  0  0  0  0
   -3.0230   50.8540   65.4660 C   0  0  0  0  0  2  0  0  0  0  0  0
   -2.0750   49.9020   64.6850 C   0  0  0  0  0  3  0  0  0  0  0  0
   -3.0150   48.9780   63.8740 C   0  0  0  0  0  2  0  0  0  0  0  0
   -3.9630   48.2020   64.7810 C   0  0  0  0  0  2  0  0  0  0  0  0
   -6.7910   48.7620   64.3430 N   0  0  0  0  0  0  0  0  0  0  0  0
   -9.9640   48.9800   64.0990 H   0  0  0  0  0  0  0  0  0  0  0  0
   -8.8630   48.0610   63.1820 H   0  0  0  0  0  0  0  0  0  0  0  0
   -6.7220   50.5160   66.9600 H   0  0  0  0  0  0  0  0  0  0  0  0
   -0.0490   48.4620   64.7740 C   0  0  0  0  0  2  0  0  0  0  0  0
    1.2840   49.2080   64.5310 C   0  0  0  0  0  2  0  0  0  0  0  0
    2.2990   48.3690   63.7850 C   0  0  0  0  0  0  0  0  0  0  0  0
    3.0750   48.9330   62.7600 C   0  0  0  0  0  3  0  0  0  0  0  0
    4.0020   48.1540   62.0620 C   0  0  0  0  0  3  0  0  0  0  0  0
    4.1490   46.8060   62.3800 C   0  0  0  0  0  0  0  0  0  0  0  0
    5.2690   45.8370   61.5020 Cl  0  0  0  0  0  0  0  0  0  0  0  0
    3.3920   46.2350   63.3990 C   0  0  0  0  0  3  0  0  0  0  0  0
    2.4700   47.0150   64.1010 C   0  0  0  0  0  3  0  0  0  0  0  0
   -0.4340   50.0980   66.5830 C   0  0  0  0  0  2  0  0  0  0  0  0
   -0.5490   49.6760   68.0500 C   0  0  0  0  0  0  0  0  0  0  0  0
   -1.5610   50.2680   68.8400 C   0  0  0  0  0  3  0  0  0  0  0  0
   -1.6630   50.0370   70.2040 C   0  0  0  0  0  3  0  0  0  0  0  0
   -0.7760   49.1730   70.8160 C   0  0  0  0  0  3  0  0  0  0  0  0
    0.1920   48.4990   70.0650 C   0  0  0  0  0  0  0  0  0  0  0  0
    1.0450   47.5960   70.7280 C   0  0  0  0  0  3  0  0  0  0  0  0
    2.0050   46.8740   70.0300 C   0  0  0  0  0  3  0  0  0  0  0  0
    2.1090   47.0280   68.6550 C   0  0  0  0  0  3  0  0  0  0  0  0
    1.2660   47.9200   67.9860 C   0  0  0  0  0  3  0  0  0  0  0  0
    0.3090   48.7120   68.6650 C   0  0  0  0  0  0  0  0  0  0  0  0
  1 26  1  0  0  0  0
  2 14  1  0  0  0  0
  2  3  1  0  0  0  0
  3  4  2  0  0  0  0
  4  5  1  0  0  0  0
  5 16  1  0  0  0  0
  6  7  1  0  0  0  0
  6  5  1  0  0  0  0
  7  8  1  0  0  0  0
  9  8  1  0  0  0  0
 10  9  1  0  0  0  0
 10  1  1  0  0  0  0
 11 10  1  0  0  0  0
 11 12  1  0  0  0  0
 12  7  1  0  0  0  0
 13  3  1  0  0  0  0
 13  6  2  0  0  0  0
 15  2  1  0  0  0  0
 17  1  1  0  0  0  0
 18 17  1  0  0  0  0
 19 25  1  0  0  0  0
 19 18  1  0  0  0  0
 20 19  2  0  0  0  0
 21 22  2  0  0  0  0
 21 20  1  0  0  0  0
 22 24  1  0  0  0  0
 23 22  1  0  0  0  0
 24 25  2  0  0  0  0
 26 27  1  0  0  0  0
 27 36  2  0  0  0  0
 27 28  1  0  0  0  0
 28 29  2  0  0  0  0
 29 30  1  0  0  0  0
 31 32  1  0  0  0  0
 31 30  2  0  0  0  0
 33 32  2  0  0  0  0
 34 33  1  0  0  0  0
 35 34  2  0  0  0  0
 35 36  1  0  0  0  0
 36 31  1  0  0  0  0
M  END
>  <MODEL>
5

>  <REMARK>
 VINA RESULT:     -10.6      4.605      8.747
  Name = CHEMBL4084573-3.4
  6 active torsions:
  status: ('A' for Active; 'I' for Inactive)
    1  A    between atoms: C_9  and  N_10
    2  A    between atoms: N_10  and  C_11
    3  A    between atoms: N_10  and  C_20
    4  A    between atoms: C_11  and  C_12
    5  A    between atoms: C_12  and  C_13
    6  A    between atoms: C_20  and  C_21
                            x       y       z     vdW  Elec       q    Type
                         _______ _______ _______ _____ _____    ______ ____

>  <TORSDO>
F 6

>  <rfscore_v2>
7.372024174214672

>  <vina_affinity>
-10.356662970714964

>  <vina_gauss1>
107.57616055426931

>  <vina_gauss2>
1532.1568168062931

>  <vina_repulsion>
1.2241012667420421

>  <vina_hydrophobic>
93.57425205261464

>  <vina_hydrogen>
0.0

>  <vina_intra_gauss1>
41.82754822328909

>  <vina_intra_gauss2>
334.85449725128456

>  <vina_intra_repulsion>
0.5498145191485209

>  <vina_intra_hydrophobic>
33.996859631757715

>  <vina_intra_hydrogen>
0.0

>  <vina_num_rotors>
6.0

>  <rfscore_v3>
6.9783505108225095

>  <PLEClinear_p5_l1_s65536>
4.196300578414557

>  <nnscore>
7.1258387275611215

$$$$
CHEMBL4084573-3.4
 OpenBabel12202021063D

 36 40  0  0  0  0  0  0  0  0999 V2000
   -2.6910   49.1240   66.9890 N   0  0  0  0  0  0  0  0  0  0  0  0
    2.9440   50.8570   61.3330 N   0  0  0  0  0  0  0  0  0  0  0  0
    2.4270   50.0190   62.2270 C   0  0  0  0  0  0  0  0  0  0  0  0
    2.7850   48.7500   62.3860 N   0  0  0  0  0  0  0  0  0  0  0  0
    1.9930   48.3920   63.4060 N   0  0  0  0  0  0  0  0  0  0  0  0
    1.1940   49.4250   63.8240 C   0  0  0  0  0  0  0  0  0  0  0  0
    0.3240   49.3160   64.8640 N   0  0  0  0  0  0  0  0  0  0  0  0
   -0.2600   48.0450   65.2750 C   0  0  0  0  0  2  0  0  0  0  0  0
   -1.7380   47.9980   64.9040 C   0  0  0  0  0  2  0  0  0  0  0  0
   -2.5390   49.1890   65.5000 C   0  0  0  0  0  3  0  0  0  0  0  0
   -1.8470   50.4550   64.9410 C   0  0  0  0  0  2  0  0  0  0  0  0
   -0.3760   50.5160   65.3370 C   0  0  0  0  0  2  0  0  0  0  0  0
    1.4870   50.4780   63.0940 N   0  0  0  0  0  0  0  0  0  0  0  0
    3.8410   50.5960   60.9450 H   0  0  0  0  0  0  0  0  0  0  0  0
    2.8410   51.8420   61.5320 H   0  0  0  0  0  0  0  0  0  0  0  0
    2.0690   47.4600   63.7870 H   0  0  0  0  0  0  0  0  0  0  0  0
   -2.4910   50.4410   67.6490 C   0  0  0  0  0  2  0  0  0  0  0  0
   -2.2250   50.3840   69.1710 C   0  0  0  0  0  2  0  0  0  0  0  0
   -1.0280   49.5270   69.5270 C   0  0  0  0  0  0  0  0  0  0  0  0
   -0.1250   49.1170   68.5330 C   0  0  0  0  0  3  0  0  0  0  0  0
    0.9710   48.3150   68.8590 C   0  0  0  0  0  3  0  0  0  0  0  0
    1.1630   47.9110   70.1790 C   0  0  0  0  0  0  0  0  0  0  0  0
    2.4960   46.8990   70.5790 Cl  0  0  0  0  0  0  0  0  0  0  0  0
    0.2800   48.3180   71.1760 C   0  0  0  0  0  3  0  0  0  0  0  0
   -0.8130   49.1250   70.8510 C   0  0  0  0  0  3  0  0  0  0  0  0
   -3.9430   48.4540   67.4550 C   0  0  0  0  0  2  0  0  0  0  0  0
   -3.8020   47.1590   68.2590 C   0  0  0  0  0  0  0  0  0  0  0  0
   -2.5060   46.7510   68.6500 C   0  0  0  0  0  3  0  0  0  0  0  0
   -2.2710   45.5340   69.2750 C   0  0  0  0  0  3  0  0  0  0  0  0
   -3.3350   44.7010   69.5620 C   0  0  0  0  0  3  0  0  0  0  0  0
   -4.6450   45.0940   69.2700 C   0  0  0  0  0  0  0  0  0  0  0  0
   -5.6980   44.2290   69.6220 C   0  0  0  0  0  3  0  0  0  0  0  0
   -7.0220   44.5790   69.3860 C   0  0  0  0  0  3  0  0  0  0  0  0
   -7.3110   45.8110   68.8150 C   0  0  0  0  0  3  0  0  0  0  0  0
   -6.2740   46.6790   68.4630 C   0  0  0  0  0  3  0  0  0  0  0  0
   -4.9100   46.3400   68.6400 C   0  0  0  0  0  0  0  0  0  0  0  0
  1 26  1  0  0  0  0
  1 17  1  0  0  0  0
  2 15  1  0  0  0  0
  2  3  1  0  0  0  0
  3  4  2  0  0  0  0
  3 13  1  0  0  0  0
  4  5  1  0  0  0  0
  5 16  1  0  0  0  0
  5  6  1  0  0  0  0
  6  7  1  0  0  0  0
  7  8  1  0  0  0  0
  7 12  1  0  0  0  0
  9  8  1  0  0  0  0
  9 10  1  0  0  0  0
 10  1  1  0  0  0  0
 11 12  1  0  0  0  0
 11 10  1  0  0  0  0
 13  6  2  0  0  0  0
 14  2  1  0  0  0  0
 17 18  1  0  0  0  0
 18 19  1  0  0  0  0
 19 25  1  0  0  0  0
 20 21  1  0  0  0  0
 20 19  2  0  0  0  0
 21 22  2  0  0  0  0
 22 23  1  0  0  0  0
 22 24  1  0  0  0  0
 25 24  2  0  0  0  0
 26 27  1  0  0  0  0
 27 36  2  0  0  0  0
 27 28  1  0  0  0  0
 28 29  2  0  0  0  0
 29 30  1  0  0  0  0
 31 30  2  0  0  0  0
 31 32  1  0  0  0  0
 33 32  2  0  0  0  0
 34 33  1  0  0  0  0
 35 36  1  0  0  0  0
 35 34  2  0  0  0  0
 36 31  1  0  0  0  0
M  END
>  <MODEL>
6

>  <REMARK>
 VINA RESULT:     -10.6      3.587      7.715
  Name = CHEMBL4084573-3.4
  6 active torsions:
  status: ('A' for Active; 'I' for Inactive)
    1  A    between atoms: C_9  and  N_10
    2  A    between atoms: N_10  and  C_11
    3  A    between atoms: N_10  and  C_20
    4  A    between atoms: C_11  and  C_12
    5  A    between atoms: C_12  and  C_13
    6  A    between atoms: C_20  and  C_21
                            x       y       z     vdW  Elec       q    Type
                         _______ _______ _______ _____ _____    ______ ____

>  <TORSDO>
F 6

>  <rfscore_v2>
7.436039195859701

>  <vina_affinity>
-10.460573425364979

>  <vina_gauss1>
119.04773854124605

>  <vina_gauss2>
1502.5863843460934

>  <vina_repulsion>
1.1693815887485626

>  <vina_hydrophobic>
85.84262082004517

>  <vina_hydrogen>
0.18738331539879283

>  <vina_intra_gauss1>
69.79320642499147

>  <vina_intra_gauss2>
363.55235645345044

>  <vina_intra_repulsion>
3.3944929351857493

>  <vina_intra_hydrophobic>
60.06271014206038

>  <vina_intra_hydrogen>
0.0

>  <vina_num_rotors>
6.0

>  <rfscore_v3>
7.077127027916528

>  <PLEClinear_p5_l1_s65536>
4.308703808639347

>  <nnscore>
6.787903482190512

$$$$
CHEMBL4084573-3.4
 OpenBabel12202021063D

 36 40  0  0  0  0  0  0  0  0999 V2000
   -3.0940   49.5310   67.4500 N   0  0  0  0  0  0  0  0  0  0  0  0
   -8.4630   50.6290   61.3900 N   0  0  0  0  0  0  0  0  0  0  0  0
   -7.4560   51.0780   62.1350 C   0  0  0  0  0  0  0  0  0  0  0  0
   -6.7660   52.1880   61.9030 N   0  0  0  0  0  0  0  0  0  0  0  0
   -5.9170   52.1780   62.9400 N   0  0  0  0  0  0  0  0  0  0  0  0
   -6.1080   51.0870   63.7500 C   0  0  0  0  0  0  0  0  0  0  0  0
   -5.3870   50.8680   64.8830 N   0  0  0  0  0  0  0  0  0  0  0  0
   -4.0420   51.3960   65.0770 C   0  0  0  0  0  2  0  0  0  0  0  0
   -3.0180   50.2680   65.0060 C   0  0  0  0  0  2  0  0  0  0  0  0
   -3.3140   49.1320   66.0230 C   0  0  0  0  0  3  0  0  0  0  0  0
   -4.7370   48.6370   65.6660 C   0  0  0  0  0  2  0  0  0  0  0  0
   -5.7650   49.7580   65.7650 C   0  0  0  0  0  2  0  0  0  0  0  0
   -7.1110   50.3940   63.2570 N   0  0  0  0  0  0  0  0  0  0  0  0
   -8.9010   51.3050   60.7790 H   0  0  0  0  0  0  0  0  0  0  0  0
   -9.1020   49.9900   61.8410 H   0  0  0  0  0  0  0  0  0  0  0  0
   -5.2710   52.9440   63.0590 H   0  0  0  0  0  0  0  0  0  0  0  0
   -3.3680   48.4280   68.4080 C   0  0  0  0  0  2  0  0  0  0  0  0
   -2.9860   47.0130   67.9130 C   0  0  0  0  0  2  0  0  0  0  0  0
   -3.7160   45.9140   68.6540 C   0  0  0  0  0  0  0  0  0  0  0  0
   -5.0440   45.5940   68.3280 C   0  0  0  0  0  3  0  0  0  0  0  0
   -5.7220   44.5890   69.0210 C   0  0  0  0  0  3  0  0  0  0  0  0
   -5.0790   43.9060   70.0510 C   0  0  0  0  0  0  0  0  0  0  0  0
   -5.9210   42.6880   70.9270 Cl  0  0  0  0  0  0  0  0  0  0  0  0
   -3.7600   44.2070   70.3800 C   0  0  0  0  0  3  0  0  0  0  0  0
   -3.0790   45.2080   69.6820 C   0  0  0  0  0  3  0  0  0  0  0  0
   -1.7750   50.1820   67.7150 C   0  0  0  0  0  2  0  0  0  0  0  0
   -0.5220   49.3070   67.6460 C   0  0  0  0  0  0  0  0  0  0  0  0
    0.0520   49.0560   66.3780 C   0  0  0  0  0  3  0  0  0  0  0  0
    1.1140   48.1800   66.2080 C   0  0  0  0  0  3  0  0  0  0  0  0
    1.6610   47.5530   67.3100 C   0  0  0  0  0  3  0  0  0  0  0  0
    1.1840   47.8280   68.5960 C   0  0  0  0  0  0  0  0  0  0  0  0
    1.8040   47.1960   69.6900 C   0  0  0  0  0  3  0  0  0  0  0  0
    1.3940   47.4560   70.9920 C   0  0  0  0  0  3  0  0  0  0  0  0
    0.3730   48.3680   71.2180 C   0  0  0  0  0  3  0  0  0  0  0  0
   -0.2480   49.0030   70.1390 C   0  0  0  0  0  3  0  0  0  0  0  0
    0.1040   48.7300   68.7950 C   0  0  0  0  0  0  0  0  0  0  0  0
  1 26  1  0  0  0  0
  1 17  1  0  0  0  0
  2 15  1  0  0  0  0
  2  3  1  0  0  0  0
  3 13  1  0  0  0  0
  4  3  2  0  0  0  0
  4  5  1  0  0  0  0
  5 16  1  0  0  0  0
  5  6  1  0  0  0  0
  6  7  1  0  0  0  0
  7  8  1  0  0  0  0
  7 12  1  0  0  0  0
  9  8  1  0  0  0  0
  9 10  1  0  0  0  0
 10  1  1  0  0  0  0
 11 12  1  0  0  0  0
 11 10  1  0  0  0  0
 13  6  2  0  0  0  0
 14  2  1  0  0  0  0
 18 17  1  0  0  0  0
 18 19  1  0  0  0  0
 19 25  1  0  0  0  0
 20 19  2  0  0  0  0
 20 21  1  0  0  0  0
 21 22  2  0  0  0  0
 22 24  1  0  0  0  0
 22 23  1  0  0  0  0
 25 24  2  0  0  0  0
 27 26  1  0  0  0  0
 27 36  1  0  0  0  0
 28 27  2  0  0  0  0
 29 28  1  0  0  0  0
 29 30  2  0  0  0  0
 30 31  1  0  0  0  0
 31 36  2  0  0  0  0
 31 32  1  0  0  0  0
 32 33  2  0  0  0  0
 33 34  1  0  0  0  0
 35 34  2  0  0  0  0
 36 35  1  0  0  0  0
M  END
>  <MODEL>
7

>  <REMARK>
 VINA RESULT:     -10.5      3.734      7.715
  Name = CHEMBL4084573-3.4
  6 active torsions:
  status: ('A' for Active; 'I' for Inactive)
    1  A    between atoms: C_9  and  N_10
    2  A    between atoms: N_10  and  C_11
    3  A    between atoms: N_10  and  C_20
    4  A    between atoms: C_11  and  C_12
    5  A    between atoms: C_12  and  C_13
    6  A    between atoms: C_20  and  C_21
                            x       y       z     vdW  Elec       q    Type
                         _______ _______ _______ _____ _____    ______ ____

>  <TORSDO>
F 6

>  <rfscore_v2>
7.355351446608952

>  <vina_affinity>
-10.55264840905871

>  <vina_gauss1>
104.07628979911001

>  <vina_gauss2>
1460.270806527851

>  <vina_repulsion>
0.9267124023103864

>  <vina_hydrophobic>
90.94701075655284

>  <vina_hydrogen>
1.026768419918248

>  <vina_intra_gauss1>
44.65403498251912

>  <vina_intra_gauss2>
325.2625542373984

>  <vina_intra_repulsion>
1.666611141240029

>  <vina_intra_hydrophobic>
47.6874856353339

>  <vina_intra_hydrogen>
0.0

>  <vina_num_rotors>
6.0

>  <rfscore_v3>
7.13806946969697

>  <PLEClinear_p5_l1_s65536>
1.5374179055987072

>  <nnscore>
7.292572255816839

$$$$
CHEMBL4084573-3.4
 OpenBabel12202021063D

 36 40  0  0  0  0  0  0  0  0999 V2000
   -0.9150   49.4480   65.5370 N   0  0  0  0  0  0  0  0  0  0  0  0
   -8.1240   50.7970   61.9370 N   0  0  0  0  0  0  0  0  0  0  0  0
   -6.9230   51.2280   62.3110 C   0  0  0  0  0  0  0  0  0  0  0  0
   -6.3780   52.3860   61.9550 N   0  0  0  0  0  0  0  0  0  0  0  0
   -5.2120   52.3290   62.6130 N   0  0  0  0  0  0  0  0  0  0  0  0
   -5.0830   51.1660   63.3290 C   0  0  0  0  0  0  0  0  0  0  0  0
   -3.9980   50.8860   64.1020 N   0  0  0  0  0  0  0  0  0  0  0  0
   -2.6820   51.4590   63.8510 C   0  0  0  0  0  2  0  0  0  0  0  0
   -1.7360   50.3920   63.3100 C   0  0  0  0  0  2  0  0  0  0  0  0
   -1.6290   49.1610   64.2520 C   0  0  0  0  0  3  0  0  0  0  0  0
   -3.0780   48.6310   64.3830 C   0  0  0  0  0  2  0  0  0  0  0  0
   -4.0170   49.6890   64.9500 C   0  0  0  0  0  2  0  0  0  0  0  0
   -6.1860   50.4690   63.1640 N   0  0  0  0  0  0  0  0  0  0  0  0
   -8.7630   51.5010   61.5910 H   0  0  0  0  0  0  0  0  0  0  0  0
   -8.5490   50.0930   62.5230 H   0  0  0  0  0  0  0  0  0  0  0  0
   -4.5780   53.1120   62.5650 H   0  0  0  0  0  0  0  0  0  0  0  0
   -1.0390   48.3460   66.5270 C   0  0  0  0  0  2  0  0  0  0  0  0
   -1.1830   48.7950   68.0000 C   0  0  0  0  0  2  0  0  0  0  0  0
   -0.0620   48.2850   68.8810 C   0  0  0  0  0  0  0  0  0  0  0  0
    0.9880   47.5310   68.3340 C   0  0  0  0  0  3  0  0  0  0  0  0
    2.0140   47.0490   69.1510 C   0  0  0  0  0  3  0  0  0  0  0  0
    1.9890   47.3110   70.5190 C   0  0  0  0  0  0  0  0  0  0  0  0
    3.2370   46.6940   71.5310 Cl  0  0  0  0  0  0  0  0  0  0  0  0
    0.9580   48.0640   71.0730 C   0  0  0  0  0  3  0  0  0  0  0  0
   -0.0650   48.5510   70.2560 C   0  0  0  0  0  3  0  0  0  0  0  0
    0.5040   49.8890   65.3710 C   0  0  0  0  0  2  0  0  0  0  0  0
    1.4050   49.0620   64.4510 C   0  0  0  0  0  0  0  0  0  0  0  0
    1.6880   47.7250   64.8150 C   0  0  0  0  0  3  0  0  0  0  0  0
    2.5870   46.9410   64.1070 C   0  0  0  0  0  3  0  0  0  0  0  0
    3.2060   47.4600   62.9860 C   0  0  0  0  0  3  0  0  0  0  0  0
    2.8990   48.7480   62.5360 C   0  0  0  0  0  0  0  0  0  0  0  0
    3.5230   49.2150   61.3640 C   0  0  0  0  0  3  0  0  0  0  0  0
    3.2330   50.4730   60.8510 C   0  0  0  0  0  3  0  0  0  0  0  0
    2.2980   51.2730   61.4920 C   0  0  0  0  0  3  0  0  0  0  0  0
    1.6700   50.8190   62.6550 C   0  0  0  0  0  3  0  0  0  0  0  0
    1.9730   49.5650   63.2390 C   0  0  0  0  0  0  0  0  0  0  0  0
  1 17  1  0  0  0  0
  2  3  1  0  0  0  0
  2 15  1  0  0  0  0
  3 13  1  0  0  0  0
  4  3  2  0  0  0  0
  4  5  1  0  0  0  0
  5  6  1  0  0  0  0
  6  7  1  0  0  0  0
  7 12  1  0  0  0  0
  8  7  1  0  0  0  0
  9  8  1  0  0  0  0
  9 10  1  0  0  0  0
 10 11  1  0  0  0  0
 10  1  1  0  0  0  0
 11 12  1  0  0  0  0
 13  6  2  0  0  0  0
 14  2  1  0  0  0  0
 16  5  1  0  0  0  0
 17 18  1  0  0  0  0
 18 19  1  0  0  0  0
 19 25  1  0  0  0  0
 20 19  2  0  0  0  0
 20 21  1  0  0  0  0
 21 22  2  0  0  0  0
 22 24  1  0  0  0  0
 22 23  1  0  0  0  0
 25 24  2  0  0  0  0
 26  1  1  0  0  0  0
 27 28  1  0  0  0  0
 27 26  1  0  0  0  0
 29 28  2  0  0  0  0
 30 29  1  0  0  0  0
 31 30  2  0  0  0  0
 31 36  1  0  0  0  0
 32 31  1  0  0  0  0
 33 32  2  0  0  0  0
 33 34  1  0  0  0  0
 34 35  2  0  0  0  0
 35 36  1  0  0  0  0
 36 27  2  0  0  0  0
M  END
>  <MODEL>
8

>  <REMARK>
 VINA RESULT:     -10.5      4.199      7.692
  Name = CHEMBL4084573-3.4
  6 active torsions:
  status: ('A' for Active; 'I' for Inactive)
    1  A    between atoms: C_9  and  N_10
    2  A    between atoms: N_10  and  C_11
    3  A    between atoms: N_10  and  C_20
    4  A    between atoms: C_11  and  C_12
    5  A    between atoms: C_12  and  C_13
    6  A    between atoms: C_20  and  C_21
                            x       y       z     vdW  Elec       q    Type
                         _______ _______ _______ _____ _____    ______ ____

>  <TORSDO>
F 6

>  <rfscore_v2>
7.366827920745923

>  <vina_affinity>
-10.324306896362474

>  <vina_gauss1>
116.62663774301588

>  <vina_gauss2>
1361.1286568214289

>  <vina_repulsion>
1.1129662591313503

>  <vina_hydrophobic>
94.10663203678612

>  <vina_hydrogen>
0.6891913412519671

>  <vina_intra_gauss1>
46.31463024249713

>  <vina_intra_gauss2>
311.1013394878494

>  <vina_intra_repulsion>
0.9996169488204129

>  <vina_intra_hydrophobic>
41.192424356503864

>  <vina_intra_hydrogen>
0.0

>  <vina_num_rotors>
6.0

>  <rfscore_v3>
6.9850059780219675

>  <PLEClinear_p5_l1_s65536>
4.154372588062074

>  <nnscore>
7.061414551658695

$$$$
CHEMBL4084573-3.4
 OpenBabel12202021063D

 36 40  0  0  0  0  0  0  0  0999 V2000
   -2.3150   49.4730   65.1580 N   0  0  0  0  0  0  0  0  0  0  0  0
   -6.8890   51.8350   58.8140 N   0  0  0  0  0  0  0  0  0  0  0  0
   -6.1530   52.1340   59.8800 C   0  0  0  0  0  0  0  0  0  0  0  0
   -5.7600   53.3560   60.2220 N   0  0  0  0  0  0  0  0  0  0  0  0
   -5.0910   53.0970   61.3540 N   0  0  0  0  0  0  0  0  0  0  0  0
   -5.0930   51.7600   61.6580 C   0  0  0  0  0  0  0  0  0  0  0  0
   -4.5040   51.2510   62.7740 N   0  0  0  0  0  0  0  0  0  0  0  0
   -3.3890   51.9070   63.4470 C   0  0  0  0  0  2  0  0  0  0  0  0
   -2.1010   51.1230   63.2200 C   0  0  0  0  0  2  0  0  0  0  0  0
   -2.2200   49.6410   63.6720 C   0  0  0  0  0  3  0  0  0  0  0  0
   -3.3950   49.0650   62.8460 C   0  0  0  0  0  2  0  0  0  0  0  0
   -4.6890   49.8310   63.0940 C   0  0  0  0  0  2  0  0  0  0  0  0
   -5.7960   51.1410   60.7350 N   0  0  0  0  0  0  0  0  0  0  0  0
   -7.4040   52.6000   58.3980 H   0  0  0  0  0  0  0  0  0  0  0  0
   -7.3910   50.9580   58.8490 H   0  0  0  0  0  0  0  0  0  0  0  0
   -4.6960   53.8620   61.8810 H   0  0  0  0  0  0  0  0  0  0  0  0
   -2.6650   48.0850   65.5610 C   0  0  0  0  0  2  0  0  0  0  0  0
   -4.0730   47.9130   66.1780 C   0  0  0  0  0  2  0  0  0  0  0  0
   -4.1000   46.9060   67.3080 C   0  0  0  0  0  0  0  0  0  0  0  0
   -2.9980   46.7680   68.1660 C   0  0  0  0  0  3  0  0  0  0  0  0
   -3.0180   45.8290   69.2000 C   0  0  0  0  0  3  0  0  0  0  0  0
   -4.1360   45.0160   69.3740 C   0  0  0  0  0  0  0  0  0  0  0  0
   -4.1510   43.8380   70.6280 Cl  0  0  0  0  0  0  0  0  0  0  0  0
   -5.2390   45.1480   68.5350 C   0  0  0  0  0  3  0  0  0  0  0  0
   -5.2220   46.0910   67.5040 C   0  0  0  0  0  3  0  0  0  0  0  0
   -1.1350   49.9910   65.9160 C   0  0  0  0  0  2  0  0  0  0  0  0
   -1.0850   49.7270   67.4230 C   0  0  0  0  0  0  0  0  0  0  0  0
   -2.0290   50.3790   68.2500 C   0  0  0  0  0  3  0  0  0  0  0  0
   -1.9830   50.2940   69.6340 C   0  0  0  0  0  3  0  0  0  0  0  0
   -1.0080   49.5210   70.2350 C   0  0  0  0  0  3  0  0  0  0  0  0
   -0.1010   48.7910   69.4610 C   0  0  0  0  0  0  0  0  0  0  0  0
    0.8450   47.9840   70.1210 C   0  0  0  0  0  3  0  0  0  0  0  0
    1.7510   47.2120   69.4040 C   0  0  0  0  0  3  0  0  0  0  0  0
    1.7080   47.2190   68.0170 C   0  0  0  0  0  3  0  0  0  0  0  0
    0.7710   48.0150   67.3520 C   0  0  0  0  0  3  0  0  0  0  0  0
   -0.1370   48.8550   68.0420 C   0  0  0  0  0  0  0  0  0  0  0  0
  1 17  1  0  0  0  0
  1 26  1  0  0  0  0
  2 15  1  0  0  0  0
  2  3  1  0  0  0  0
  3  4  2  0  0  0  0
  3 13  1  0  0  0  0
  4  5  1  0  0  0  0
  5  6  1  0  0  0  0
  5 16  1  0  0  0  0
  6  7  1  0  0  0  0
  7 12  1  0  0  0  0
  7  8  1  0  0  0  0
  9  8  1  0  0  0  0
  9 10  1  0  0  0  0
 10  1  1  0  0  0  0
 11 12  1  0  0  0  0
 11 10  1  0  0  0  0
 13  6  2  0  0  0  0
 14  2  1  0  0  0  0
 17 18  1  0  0  0  0
 18 19  1  0  0  0  0
 19 25  2  0  0  0  0
 19 20  1  0  0  0  0
 20 21  2  0  0  0  0
 21 22  1  0  0  0  0
 22 23  1  0  0  0  0
 24 22  2  0  0  0  0
 25 24  1  0  0  0  0
 26 27  1  0  0  0  0
 27 36  2  0  0  0  0
 27 28  1  0  0  0  0
 28 29  2  0  0  0  0
 29 30  1  0  0  0  0
 31 32  1  0  0  0  0
 31 30  2  0  0  0  0
 33 32  2  0  0  0  0
 34 33  1  0  0  0  0
 35 34  2  0  0  0  0
 35 36  1  0  0  0  0
 36 31  1  0  0  0  0
M  END
>  <MODEL>
9

>  <REMARK>
 VINA RESULT:      -9.9      4.129      8.178
  Name = CHEMBL4084573-3.4
  6 active torsions:
  status: ('A' for Active; 'I' for Inactive)
    1  A    between atoms: C_9  and  N_10
    2  A    between atoms: N_10  and  C_11
    3  A    between atoms: N_10  and  C_20
    4  A    between atoms: C_11  and  C_12
    5  A    between atoms: C_12  and  C_13
    6  A    between atoms: C_20  and  C_21
                            x       y       z     vdW  Elec       q    Type
                         _______ _______ _______ _____ _____    ______ ____

>  <TORSDO>
F 6

>  <rfscore_v2>
7.150273464979464

>  <vina_affinity>
-9.129768511293701

>  <vina_gauss1>
95.76837054019248

>  <vina_gauss2>
1307.4712899500864

>  <vina_repulsion>
0.7489649794814761

>  <vina_hydrophobic>
73.61589058521595

>  <vina_hydrogen>
0.380961217389868

>  <vina_intra_gauss1>
55.65075478317036

>  <vina_intra_gauss2>
323.95815906975565

>  <vina_intra_repulsion>
0.553228485384071

>  <vina_intra_hydrophobic>
65.35262859185463

>  <vina_intra_hydrogen>
0.0

>  <vina_num_rotors>
6.0

>  <rfscore_v3>
6.582855363969356

>  <PLEClinear_p5_l1_s65536>
2.048326244564351

>  <nnscore>
6.7688711511295425

$$$$
