REMARK  Name = A_lig.pdb
REMARK  16 active torsions:
REMARK  status: ('A' for Active; 'I' for Inactive)
REMARK    1  A    between atoms: C_1  and  O_29
REMARK    2  A    between atoms: C_2  and  N_9
REMARK    3  A    between atoms: C_3  and  O_10
REMARK    4  A    between atoms: C_4  and  O_11
REMARK    5  A    between atoms: C_5  and  C_6
REMARK    6  A    between atoms: C_6  and  O_13
REMARK    7  A    between atoms: C_19  and  O_48
REMARK    8  A    between atoms: C_20  and  N_27
REMARK    9  A    between atoms: C_21  and  O_28
REMARK   10  A    between atoms: C_22  and  O_29
REMARK   11  A    between atoms: C_23  and  C_24
REMARK   12  A    between atoms: C_24  and  O_31
REMARK   13  A    between atoms: C_38  and  O_47
REMARK   14  A    between atoms: C_39  and  O_48
REMARK   15  A    between atoms: C_40  and  C_41
REMARK   16  A    between atoms: C_41  and  O_49
REMARK                            x       y       z     vdW  Elec       q    Type
REMARK                         _______ _______ _______ _____ _____    ______ ____
ROOT
ATOM      1  C   UNL     1       2.618  49.798  66.108  0.00  0.00    +0.000 C 
ATOM      2  C   UNL     1       2.571  49.228  64.659  0.00  0.00    +0.000 C 
ATOM      3  C   UNL     1       1.963  50.282  63.697  0.00  0.00    +0.000 C 
ATOM      4  C   UNL     1       0.572  50.771  64.329  0.00  0.00    +0.000 C 
ATOM      5  C   UNL     1       0.816  51.352  65.764  0.00  0.00    +0.000 C 
ATOM      6  O   UNL     1       1.345  50.284  66.549  0.00  0.00    +0.000 OA
ENDROOT
BRANCH   2   9
ATOM      7  C   UNL     1       4.388  47.663  64.160  0.00  0.00    +0.000 C 
ATOM      8  C   UNL     1       5.873  47.457  63.890  0.00  0.00    +0.000 C 
ATOM      9  N   UNL     1       3.994  48.902  64.366  0.00  0.00    +0.000 N 
ATOM     10  O   UNL     1       3.603  46.712  64.180  0.00  0.00    +0.000 OA
ATOM     11  H   UNL     1       4.673  49.649  64.324  0.00  0.00    +0.000 HD
ENDBRANCH   2   9
BRANCH   3  12
ATOM     12  O   UNL     1       2.861  51.380  63.537  0.00  0.00    +0.000 OA
ATOM     13  H   UNL     1       2.475  52.025  62.940  0.00  0.00    +0.000 HD
ENDBRANCH   3  12
BRANCH   5  14
ATOM     14  C   UNL     1      -0.463  51.811  66.453  0.00  0.00    +0.000 C 
BRANCH  14  15
ATOM     15  O   UNL     1      -0.107  52.264  67.789  0.00  0.00    +0.000 OA
ATOM     16  H   UNL     1      -0.845  52.113  68.385  0.00  0.00    +0.000 HD
ENDBRANCH  14  15
ENDBRANCH   5  14
BRANCH   4  17
ATOM     17  O   UNL     1      -0.092  51.753  63.556  0.00  0.00    +0.000 OA
BRANCH  17  18
ATOM     18  C   UNL     1      -0.946  51.259  62.548  0.00  0.00    +0.000 C 
ATOM     19  C   UNL     1      -2.119  52.261  62.361  0.00  0.00    +0.000 C 
ATOM     20  C   UNL     1      -2.825  52.143  61.014  0.00  0.00    +0.000 C 
ATOM     21  C   UNL     1      -1.767  52.099  59.887  0.00  0.00    +0.000 C 
ATOM     22  C   UNL     1      -0.776  50.884  60.151  0.00  0.00    +0.000 C 
ATOM     23  O   UNL     1      -0.074  51.258  61.384  0.00  0.00    +0.000 OA
BRANCH  19  26
ATOM     24  C   UNL     1      -3.230  52.880  64.492  0.00  0.00    +0.000 C 
ATOM     25  C   UNL     1      -4.281  52.367  65.475  0.00  0.00    +0.000 C 
ATOM     26  N   UNL     1      -3.046  52.072  63.471  0.00  0.00    +0.000 N 
ATOM     27  O   UNL     1      -2.634  53.919  64.662  0.00  0.00    +0.000 OA
ATOM     28  H   UNL     1      -3.604  51.230  63.455  0.00  0.00    +0.000 HD
ENDBRANCH  19  26
BRANCH  21  29
ATOM     29  O   UNL     1      -2.452  51.972  58.669  0.00  0.00    +0.000 OA
ATOM     30  H   UNL     1      -1.819  51.942  57.948  0.00  0.00    +0.000 HD
ENDBRANCH  21  29
BRANCH  20  31
ATOM     31  O   UNL     1      -3.601  50.958  61.009  0.00  0.00    +0.000 OA
ATOM     32  H   UNL     1      -4.050  50.872  60.165  0.00  0.00    +0.000 HD
ENDBRANCH  20  31
BRANCH  22  33
ATOM     33  C   UNL     1       0.283  50.680  59.014  0.00  0.00    +0.000 C 
BRANCH  33  34
ATOM     34  O   UNL     1       0.857  51.924  58.536  0.00  0.00    +0.000 OA
ATOM     35  C   UNL     1       2.036  52.298  59.075  0.00  0.00    +0.000 C 
ENDBRANCH  33  34
ENDBRANCH  22  33
ENDBRANCH  17  18
ENDBRANCH   4  17
BRANCH   1  36
ATOM     36  O   UNL     1       3.010  48.740  66.954  0.00  0.00    +0.000 OA
BRANCH  36  40
ATOM     37  C   UNL     1       4.202  48.061  70.333  0.00  0.00    +0.000 C 
ATOM     38  C   UNL     1       3.050  49.039  70.644  0.00  0.00    +0.000 C 
ATOM     39  C   UNL     1       2.313  49.199  69.314  0.00  0.00    +0.000 C 
ATOM     40  C   UNL     1       3.433  49.071  68.265  0.00  0.00    +0.000 C 
ATOM     41  C   UNL     1       4.114  47.823  68.821  0.00  0.00    +0.000 C 
ATOM     42  C   UNL     1       2.763  47.153  71.859  0.00  0.00    +0.000 C 
ATOM     43  C   UNL     1       0.938  46.453  73.400  0.00  0.00    +0.000 C 
ATOM     44  C   UNL     1       2.901  44.950  72.954  0.00  0.00    +0.000 C 
ATOM     45  N   UNL     1       2.238  48.355  71.599  0.00  0.00    +0.000 NA
ATOM     46  N   UNL     1       2.169  46.198  72.616  0.00  0.00    +0.000 N 
ATOM     47  O   UNL     1       3.889  46.883  71.115  0.00  0.00    +0.000 OA
BRANCH  39  48
ATOM     48  O   UNL     1       1.735  50.505  69.312  0.00  0.00    +0.000 OA
ATOM     49  H   UNL     1       1.531  50.763  68.410  0.00  0.00    +0.000 HD
ENDBRANCH  39  48
BRANCH  41  50
ATOM     50  C   UNL     1       5.526  47.524  68.180  0.00  0.00    +0.000 C 
BRANCH  50  51
ATOM     51  O   UNL     1       6.394  48.677  68.332  0.00  0.00    +0.000 OA
ATOM     52  H   UNL     1       7.311  48.394  68.302  0.00  0.00    +0.000 HD
ENDBRANCH  50  51
ENDBRANCH  41  50
ENDBRANCH  36  40
ENDBRANCH   1  36
TORSDOF 16
