REMARK  Name = smiles:[C@@H]1([C@@H]...
REMARK  20 active torsions:
REMARK  status: ('A' for Active; 'I' for Inactive)
REMARK    1  A    between atoms: C1_1  and  O11_30
REMARK    2  A    between atoms: C2_2  and  N2_26
REMARK    3  A    between atoms: C3_3  and  O9_25
REMARK    4  A    between atoms: C4_4  and  O3_9
REMARK    5  A    between atoms: C5_5  and  C6_6
REMARK    6  A    between atoms: C6_6  and  O1_7
REMARK    7  A    between atoms: O3_9  and  C7_10
REMARK    8  A    between atoms: C8_11  and  N1_21
REMARK    9  A    between atoms: C9_12  and  O7_20
REMARK   10  A    between atoms: C10_13  and  O6_19
REMARK   11  A    between atoms: C11_14  and  C12_15
REMARK   12  A    between atoms: C12_15  and  O4_16
REMARK   13  A    between atoms: O4_16  and  C13_17
REMARK   14  A    between atoms: C14_22  and  C15_24
REMARK   15  A    between atoms: C16_27  and  C17_29
REMARK   16  A    between atoms: O11_30  and  C18_31
REMARK   17  A    between atoms: C19_32  and  O14_43
REMARK   18  A    between atoms: C22_35  and  C23_36
REMARK   19  A    between atoms: C23_36  and  O12_37
REMARK   20  A    between atoms: N4_41  and  C26_42
REMARK                            x       y       z     vdW  Elec       q    Type
REMARK                         _______ _______ _______ _____ _____    ______ ____
ROOT
ATOM      1  C1  UNK A   1      -1.098   0.168   0.756  0.00  0.00    +0.000 C 
ATOM      2  C2  UNK A   1      -0.205  -1.073   0.819  0.00  0.00    +0.000 C 
ATOM      3  C3  UNK A   1       1.222  -0.644   1.179  0.00  0.00    +0.000 C 
ATOM      4  C4  UNK A   1       1.674   0.436   0.190  0.00  0.00    +0.000 C 
ATOM      5  C5  UNK A   1       0.639   1.563   0.175  0.00  0.00    +0.000 C 
ATOM      6  O2  UNK A   1      -0.623   1.055  -0.255  0.00  0.00    +0.000 OA
ENDROOT
BRANCH   2   7
ATOM      7  N2  UNK A   1      -0.715  -1.993   1.839  0.00  0.00    +0.000 N 
ATOM      8  C16 UNK A   1      -1.690  -2.870   1.528  0.00  0.00    +0.000 C 
ATOM      9  O10 UNK A   1      -2.145  -2.898   0.404  0.00  0.00    +0.000 OA
ATOM     10  C17 UNK A   1      -2.215  -3.816   2.577  0.00  0.00    +0.000 C 
ATOM     11  HN1 UNK A   1      -0.336  -1.969   2.774  0.00  0.00    +0.000 HD
ENDBRANCH   2   7
BRANCH   3  12
ATOM     12  O9  UNK A   1       1.243  -0.120   2.509  0.00  0.00    +0.000 OA
ATOM     13  HO5 UNK A   1       2.137   0.148   2.733  0.00  0.00    +0.000 HD
ENDBRANCH   3  12
BRANCH   1  14
ATOM     14  O11 UNK A   1      -2.437  -0.225   0.449  0.00  0.00    +0.000 OA
BRANCH  14  15
ATOM     15  C18 UNK A   1      -3.241   0.954   0.524  0.00  0.00    +0.000 C 
ATOM     16  C19 UNK A   1      -3.326   1.617  -0.858  0.00  0.00    +0.000 C 
ATOM     17  C20 UNK A   1      -4.804   1.658  -1.260  0.00  0.00    +0.000 C 
ATOM     18  C21 UNK A   1      -5.610   1.421   0.049  0.00  0.00    +0.000 C 
ATOM     19  C22 UNK A   1      -4.671   0.585   0.943  0.00  0.00    +0.000 C 
ATOM     20  O13 UNK A   1      -6.660   0.556  -0.440  0.00  0.00    +0.000 OA
ATOM     21  C24 UNK A   1      -6.177  -0.087  -1.536  0.00  0.00    +0.000 C 
ATOM     22  N3  UNK A   1      -5.145   0.472  -2.064  0.00  0.00    +0.000 NA
ATOM     23  N4  UNK A   1      -6.706  -1.152  -2.008  0.00  0.00    +0.000 N 
ATOM     24  C26 UNK A   1      -6.131  -1.792  -3.193  0.00  0.00    +0.000 C 
ATOM     25  HN2 UNK A   1      -7.520  -1.551  -1.563  0.00  0.00    +0.000 HD
BRANCH  16  26
ATOM     26  O14 UNK A   1      -2.802   2.944  -0.792  0.00  0.00    +0.000 OA
ATOM     27  HO  UNK A   1      -1.872   2.910  -0.554  0.00  0.00    +0.000 HD
ENDBRANCH  16  26
BRANCH  19  28
ATOM     28  C23 UNK A   1      -4.901   0.932   2.415  0.00  0.00    +0.000 C 
BRANCH  28  29
ATOM     29  O12 UNK A   1      -6.210   0.511   2.805  0.00  0.00    +0.000 OA
ATOM     30  HO3 UNK A   1      -6.354   0.728   3.729  0.00  0.00    +0.000 HD
ENDBRANCH  28  29
ENDBRANCH  19  28
ENDBRANCH  14  15
ENDBRANCH   1  14
BRANCH   4  31
ATOM     31  O3  UNK A   1       2.942   0.955   0.596  0.00  0.00    +0.000 OA
BRANCH  31  32
ATOM     32  C7  UNK A   1       3.934   0.265  -0.167  0.00  0.00    +0.000 C 
ATOM     33  C8  UNK A   1       5.302   0.903   0.082  0.00  0.00    +0.000 C 
ATOM     34  C9  UNK A   1       6.353   0.177  -0.766  0.00  0.00    +0.000 C 
ATOM     35  C10 UNK A   1       6.270  -1.325  -0.470  0.00  0.00    +0.000 C 
ATOM     36  C11 UNK A   1       4.829  -1.794  -0.677  0.00  0.00    +0.000 C 
ATOM     37  O5  UNK A   1       3.963  -1.107   0.225  0.00  0.00    +0.000 OA
BRANCH  33  38
ATOM     38  N1  UNK A   1       5.259   2.318  -0.294  0.00  0.00    +0.000 N 
ATOM     39  C14 UNK A   1       4.815   3.236   0.587  0.00  0.00    +0.000 C 
ATOM     40  O8  UNK A   1       4.453   2.891   1.692  0.00  0.00    +0.000 OA
ATOM     41  C15 UNK A   1       4.770   4.692   0.200  0.00  0.00    +0.000 C 
ATOM     42  HN  UNK A   1       5.561   2.606  -1.214  0.00  0.00    +0.000 HD
ENDBRANCH  33  38
BRANCH  34  43
ATOM     43  O7  UNK A   1       6.096   0.411  -2.152  0.00  0.00    +0.000 OA
ATOM     44  HO2 UNK A   1       6.755  -0.044  -2.682  0.00  0.00    +0.000 HD
ENDBRANCH  34  43
BRANCH  35  45
ATOM     45  O6  UNK A   1       7.138  -2.035  -1.356  0.00  0.00    +0.000 OA
ATOM     46  HO4 UNK A   1       8.041  -1.734  -1.229  0.00  0.00    +0.000 HD
ENDBRANCH  35  45
BRANCH  36  47
ATOM     47  C12 UNK A   1       4.742  -3.299  -0.415  0.00  0.00    +0.000 C 
BRANCH  47  48
ATOM     48  O4  UNK A   1       3.424  -3.760  -0.720  0.00  0.00    +0.000 OA
ATOM     49  C13 UNK A   1       3.406  -5.165  -0.456  0.00  0.00    +0.000 C 
ENDBRANCH  47  48
ENDBRANCH  36  47
ENDBRANCH  31  32
ENDBRANCH   4  31
BRANCH   5  50
ATOM     50  C6  UNK A   1       1.097   2.662  -0.786  0.00  0.00    +0.000 C 
BRANCH  50  51
ATOM     51  O1  UNK A   1       0.191   3.765  -0.716  0.00  0.00    +0.000 OA
ATOM     52  HO1 UNK A   1       0.684   4.588  -0.756  0.00  0.00    +0.000 HD
ENDBRANCH  50  51
ENDBRANCH   5  50
TORSDOF 16
