MODEL 1
REMARK VINA RESULT:      -7.6      0.000      0.000
REMARK  Name = smiles:[C@@H]1([C@@H]...
REMARK  20 active torsions:
REMARK  status: ('A' for Active; 'I' for Inactive)
REMARK    1  A    between atoms: C1_1  and  O11_30
REMARK    2  A    between atoms: C2_2  and  N2_26
REMARK    3  A    between atoms: C3_3  and  O9_25
REMARK    4  A    between atoms: C4_4  and  O3_9
REMARK    5  A    between atoms: C5_5  and  C6_6
REMARK    6  A    between atoms: C6_6  and  O1_7
REMARK    7  A    between atoms: O3_9  and  C7_10
REMARK    8  A    between atoms: C8_11  and  N1_21
REMARK    9  A    between atoms: C9_12  and  O7_20
REMARK   10  A    between atoms: C10_13  and  O6_19
REMARK   11  A    between atoms: C11_14  and  C12_15
REMARK   12  A    between atoms: C12_15  and  O4_16
REMARK   13  A    between atoms: O4_16  and  C13_17
REMARK   14  A    between atoms: C14_22  and  C15_24
REMARK   15  A    between atoms: C16_27  and  C17_29
REMARK   16  A    between atoms: O11_30  and  C18_31
REMARK   17  A    between atoms: C19_32  and  O14_43
REMARK   18  A    between atoms: C22_35  and  C23_36
REMARK   19  A    between atoms: C23_36  and  O12_37
REMARK   20  A    between atoms: N4_41  and  C26_42
REMARK                            x       y       z     vdW  Elec       q    Type
REMARK                         _______ _______ _______ _____ _____    ______ ____
ROOT
ATOM      1  C1  UNK A   1      -6.312  47.851  67.407  0.00  0.00    +0.000 C 
ATOM      2  C2  UNK A   1      -5.135  48.323  68.264  0.00  0.00    +0.000 C 
ATOM      3  C3  UNK A   1      -4.094  47.201  68.344  0.00  0.00    +0.000 C 
ATOM      4  C4  UNK A   1      -4.785  45.923  68.831  0.00  0.00    +0.000 C 
ATOM      5  C5  UNK A   1      -5.988  45.633  67.930  0.00  0.00    +0.000 C 
ATOM      6  O2  UNK A   1      -6.921  46.710  68.007  0.00  0.00    +0.000 OA
ENDROOT
BRANCH   2   7
ATOM      7  N2  UNK A   1      -4.533  49.513  67.658  0.00  0.00    +0.000 N 
ATOM      8  C16 UNK A   1      -3.823  50.370  68.418  0.00  0.00    +0.000 C 
ATOM      9  O10 UNK A   1      -3.683  50.157  69.604  0.00  0.00    +0.000 OA
ATOM     10  C17 UNK A   1      -3.203  51.595  67.795  0.00  0.00    +0.000 C 
ATOM     11  HN1 UNK A   1      -4.650  49.690  66.672  0.00  0.00    +0.000 HD
ENDBRANCH   2   7
BRANCH   3  12
ATOM     12  O9  UNK A   1      -3.528  46.981  67.050  0.00  0.00    +0.000 OA
ATOM     13  HO5 UNK A   1      -2.801  47.593  66.910  0.00  0.00    +0.000 HD
ENDBRANCH   3  12
BRANCH   1  14
ATOM     14  O11 UNK A   1      -7.276  48.901  67.304  0.00  0.00    +0.000 OA
BRANCH  14  15
ATOM     15  C18 UNK A   1      -7.725  48.917  65.947  0.00  0.00    +0.000 C 
ATOM     16  C19 UNK A   1      -7.280  50.219  65.265  0.00  0.00    +0.000 C 
ATOM     17  C20 UNK A   1      -6.391  49.836  64.077  0.00  0.00    +0.000 C 
ATOM     18  C21 UNK A   1      -6.664  48.330  63.806  0.00  0.00    +0.000 C 
ATOM     19  C22 UNK A   1      -7.089  47.754  65.173  0.00  0.00    +0.000 C 
ATOM     20  O13 UNK A   1      -5.327  47.866  63.514  0.00  0.00    +0.000 OA
ATOM     21  C24 UNK A   1      -4.462  48.705  64.143  0.00  0.00    +0.000 C 
ATOM     22  N3  UNK A   1      -4.975  49.836  64.481  0.00  0.00    +0.000 NA
ATOM     23  N4  UNK A   1      -3.240  48.401  64.373  0.00  0.00    +0.000 N 
ATOM     24  C26 UNK A   1      -2.365  49.355  65.058  0.00  0.00    +0.000 C 
ATOM     25  HN2 UNK A   1      -2.880  47.504  64.083  0.00  0.00    +0.000 HD
BRANCH  16  26
ATOM     26  O14 UNK A   1      -8.423  50.941  64.806  0.00  0.00    +0.000 OA
ATOM     27  HO  UNK A   1      -9.005  51.125  65.548  0.00  0.00    +0.000 HD
ENDBRANCH  16  26
BRANCH  19  28
ATOM     28  C23 UNK A   1      -8.104  46.627  64.976  0.00  0.00    +0.000 C 
BRANCH  28  29
ATOM     29  O12 UNK A   1      -9.183  46.791  65.899  0.00  0.00    +0.000 OA
ATOM     30  HO3 UNK A   1      -9.136  47.664  66.294  0.00  0.00    +0.000 HD
ENDBRANCH  28  29
ENDBRANCH  19  28
ENDBRANCH  14  15
ENDBRANCH   1  14
BRANCH   4  31
ATOM     31  O3  UNK A   1      -3.866  44.830  68.770  0.00  0.00    +0.000 OA
BRANCH  31  32
ATOM     32  C7  UNK A   1      -3.689  44.365  70.110  0.00  0.00    +0.000 C 
ATOM     33  C8  UNK A   1      -2.657  45.242  70.821  0.00  0.00    +0.000 C 
ATOM     34  C9  UNK A   1      -2.450  44.715  72.246  0.00  0.00    +0.000 C 
ATOM     35  C10 UNK A   1      -3.816  44.623  72.938  0.00  0.00    +0.000 C 
ATOM     36  C11 UNK A   1      -4.760  43.793  72.066  0.00  0.00    +0.000 C 
ATOM     37  O5  UNK A   1      -4.936  44.430  70.802  0.00  0.00    +0.000 OA
BRANCH  33  38
ATOM     38  N1  UNK A   1      -1.388  45.196  70.091  0.00  0.00    +0.000 N 
ATOM     39  C14 UNK A   1      -0.731  46.338  69.808  0.00  0.00    +0.000 C 
ATOM     40  O8  UNK A   1      -1.190  47.405  70.160  0.00  0.00    +0.000 OA
ATOM     41  C15 UNK A   1       0.574  46.291  69.056  0.00  0.00    +0.000 C 
ATOM     42  HN  UNK A   1      -1.005  44.308  69.798  0.00  0.00    +0.000 HD
ENDBRANCH  33  38
BRANCH  34  43
ATOM     43  O7  UNK A   1      -1.846  43.421  72.195  0.00  0.00    +0.000 OA
ATOM     44  HO2 UNK A   1      -1.791  43.128  71.282  0.00  0.00    +0.000 HD
ENDBRANCH  34  43
BRANCH  35  45
ATOM     45  O6  UNK A   1      -3.663  43.996  74.213  0.00  0.00    +0.000 OA
ATOM     46  HO4 UNK A   1      -4.525  43.733  74.545  0.00  0.00    +0.000 HD
ENDBRANCH  35  45
BRANCH  36  47
ATOM     47  C12 UNK A   1      -6.116  43.668  72.764  0.00  0.00    +0.000 C 
BRANCH  47  48
ATOM     48  O4  UNK A   1      -6.135  42.481  73.559  0.00  0.00    +0.000 OA
ATOM     49  C13 UNK A   1      -6.973  42.752  74.685  0.00  0.00    +0.000 C 
ENDBRANCH  47  48
ENDBRANCH  36  47
ENDBRANCH  31  32
ENDBRANCH   4  31
BRANCH   5  50
ATOM     50  C6  UNK A   1      -6.666  44.340  68.389  0.00  0.00    +0.000 C 
BRANCH  50  51
ATOM     51  O1  UNK A   1      -7.481  44.609  69.532  0.00  0.00    +0.000 OA
ATOM     52  HO1 UNK A   1      -7.717  43.782  69.959  0.00  0.00    +0.000 HD
ENDBRANCH  50  51
ENDBRANCH   5  50
TORSDOF 16
ENDMDL
MODEL 2
REMARK VINA RESULT:      -7.6      2.839      5.621
REMARK  Name = smiles:[C@@H]1([C@@H]...
REMARK  20 active torsions:
REMARK  status: ('A' for Active; 'I' for Inactive)
REMARK    1  A    between atoms: C1_1  and  O11_30
REMARK    2  A    between atoms: C2_2  and  N2_26
REMARK    3  A    between atoms: C3_3  and  O9_25
REMARK    4  A    between atoms: C4_4  and  O3_9
REMARK    5  A    between atoms: C5_5  and  C6_6
REMARK    6  A    between atoms: C6_6  and  O1_7
REMARK    7  A    between atoms: O3_9  and  C7_10
REMARK    8  A    between atoms: C8_11  and  N1_21
REMARK    9  A    between atoms: C9_12  and  O7_20
REMARK   10  A    between atoms: C10_13  and  O6_19
REMARK   11  A    between atoms: C11_14  and  C12_15
REMARK   12  A    between atoms: C12_15  and  O4_16
REMARK   13  A    between atoms: O4_16  and  C13_17
REMARK   14  A    between atoms: C14_22  and  C15_24
REMARK   15  A    between atoms: C16_27  and  C17_29
REMARK   16  A    between atoms: O11_30  and  C18_31
REMARK   17  A    between atoms: C19_32  and  O14_43
REMARK   18  A    between atoms: C22_35  and  C23_36
REMARK   19  A    between atoms: C23_36  and  O12_37
REMARK   20  A    between atoms: N4_41  and  C26_42
REMARK                            x       y       z     vdW  Elec       q    Type
REMARK                         _______ _______ _______ _____ _____    ______ ____
ROOT
ATOM      1  C1  UNK A   1      -3.404  46.991  67.918  0.00  0.00    +0.000 C 
ATOM      2  C2  UNK A   1      -4.720  46.527  67.289  0.00  0.00    +0.000 C 
ATOM      3  C3  UNK A   1      -5.658  46.036  68.398  0.00  0.00    +0.000 C 
ATOM      4  C4  UNK A   1      -4.924  44.979  69.230  0.00  0.00    +0.000 C 
ATOM      5  C5  UNK A   1      -3.593  45.560  69.712  0.00  0.00    +0.000 C 
ATOM      6  O2  UNK A   1      -2.779  45.899  68.590  0.00  0.00    +0.000 OA
ENDROOT
BRANCH   2   7
ATOM      7  N2  UNK A   1      -5.343  47.645  66.575  0.00  0.00    +0.000 N 
ATOM      8  C16 UNK A   1      -5.897  47.445  65.363  0.00  0.00    +0.000 C 
ATOM      9  O10 UNK A   1      -5.881  46.340  64.863  0.00  0.00    +0.000 OA
ATOM     10  C17 UNK A   1      -6.538  48.594  64.629  0.00  0.00    +0.000 C 
ATOM     11  HN1 UNK A   1      -5.357  48.564  66.992  0.00  0.00    +0.000 HD
ENDBRANCH   2   7
BRANCH   3  12
ATOM     12  O9  UNK A   1      -6.028  47.136  69.233  0.00  0.00    +0.000 OA
ATOM     13  HO5 UNK A   1      -5.475  47.893  69.029  0.00  0.00    +0.000 HD
ENDBRANCH   3  12
BRANCH   1  14
ATOM     14  O11 UNK A   1      -2.534  47.477  66.894  0.00  0.00    +0.000 OA
BRANCH  14  15
ATOM     15  C18 UNK A   1      -2.118  48.785  67.292  0.00  0.00    +0.000 C 
ATOM     16  C19 UNK A   1      -0.762  48.706  68.008  0.00  0.00    +0.000 C 
ATOM     17  C20 UNK A   1       0.231  49.556  67.209  0.00  0.00    +0.000 C 
ATOM     18  C21 UNK A   1      -0.630  50.467  66.287  0.00  0.00    +0.000 C 
ATOM     19  C22 UNK A   1      -1.931  49.672  66.054  0.00  0.00    +0.000 C 
ATOM     20  O13 UNK A   1       0.151  50.427  65.071  0.00  0.00    +0.000 OA
ATOM     21  C24 UNK A   1       0.852  49.262  65.079  0.00  0.00    +0.000 C 
ATOM     22  N3  UNK A   1       0.955  48.715  66.240  0.00  0.00    +0.000 NA
ATOM     23  N4  UNK A   1       1.372  48.755  64.026  0.00  0.00    +0.000 N 
ATOM     24  C26 UNK A   1       2.115  47.496  64.109  0.00  0.00    +0.000 C 
ATOM     25  HN2 UNK A   1       1.271  49.224  63.137  0.00  0.00    +0.000 HD
BRANCH  16  26
ATOM     26  O14 UNK A   1      -0.885  49.219  69.335  0.00  0.00    +0.000 OA
ATOM     27  HO  UNK A   1      -0.887  50.179  69.309  0.00  0.00    +0.000 HD
ENDBRANCH  16  26
BRANCH  19  28
ATOM     28  C23 UNK A   1      -3.113  50.632  65.903  0.00  0.00    +0.000 C 
BRANCH  28  29
ATOM     29  O12 UNK A   1      -4.101  50.330  66.890  0.00  0.00    +0.000 OA
ATOM     30  HO3 UNK A   1      -4.874  49.953  66.464  0.00  0.00    +0.000 HD
ENDBRANCH  28  29
ENDBRANCH  19  28
ENDBRANCH  14  15
ENDBRANCH   1  14
BRANCH   4  31
ATOM     31  O3  UNK A   1      -5.725  44.617  70.357  0.00  0.00    +0.000 OA
BRANCH  31  32
ATOM     32  C7  UNK A   1      -6.236  43.308  70.096  0.00  0.00    +0.000 C 
ATOM     33  C8  UNK A   1      -6.522  42.600  71.421  0.00  0.00    +0.000 C 
ATOM     34  C9  UNK A   1      -7.039  41.186  71.131  0.00  0.00    +0.000 C 
ATOM     35  C10 UNK A   1      -8.232  41.287  70.174  0.00  0.00    +0.000 C 
ATOM     36  C11 UNK A   1      -7.817  42.094  68.943  0.00  0.00    +0.000 C 
ATOM     37  O5  UNK A   1      -7.439  43.413  69.335  0.00  0.00    +0.000 OA
BRANCH  33  38
ATOM     38  N1  UNK A   1      -5.291  42.521  72.211  0.00  0.00    +0.000 N 
ATOM     39  C14 UNK A   1      -5.324  42.764  73.536  0.00  0.00    +0.000 C 
ATOM     40  O8  UNK A   1      -6.373  43.047  74.075  0.00  0.00    +0.000 OA
ATOM     41  C15 UNK A   1      -4.057  42.684  74.348  0.00  0.00    +0.000 C 
ATOM     42  HN  UNK A   1      -4.417  42.286  71.762  0.00  0.00    +0.000 HD
ENDBRANCH  33  38
BRANCH  34  43
ATOM     43  O7  UNK A   1      -6.001  40.411  70.528  0.00  0.00    +0.000 OA
ATOM     44  HO2 UNK A   1      -5.252  40.357  71.126  0.00  0.00    +0.000 HD
ENDBRANCH  34  43
BRANCH  35  45
ATOM     45  O6  UNK A   1      -8.636  39.975  69.774  0.00  0.00    +0.000 OA
ATOM     46  HO4 UNK A   1      -9.484  39.765  70.174  0.00  0.00    +0.000 HD
ENDBRANCH  35  45
BRANCH  36  47
ATOM     47  C12 UNK A   1      -8.992  42.173  67.967  0.00  0.00    +0.000 C 
BRANCH  47  48
ATOM     48  O4  UNK A   1      -8.917  41.087  67.042  0.00  0.00    +0.000 OA
ATOM     49  C13 UNK A   1      -9.222  41.621  65.751  0.00  0.00    +0.000 C 
ENDBRANCH  47  48
ENDBRANCH  36  47
ENDBRANCH  31  32
ENDBRANCH   4  31
BRANCH   5  50
ATOM     50  C6  UNK A   1      -2.866  44.523  70.571  0.00  0.00    +0.000 C 
BRANCH  50  51
ATOM     51  O1  UNK A   1      -3.054  44.832  71.953  0.00  0.00    +0.000 OA
ATOM     52  HO1 UNK A   1      -2.240  45.190  72.315  0.00  0.00    +0.000 HD
ENDBRANCH  50  51
ENDBRANCH   5  50
TORSDOF 16
ENDMDL
MODEL 3
REMARK VINA RESULT:      -7.3      4.495      9.149
REMARK  Name = smiles:[C@@H]1([C@@H]...
REMARK  20 active torsions:
REMARK  status: ('A' for Active; 'I' for Inactive)
REMARK    1  A    between atoms: C1_1  and  O11_30
REMARK    2  A    between atoms: C2_2  and  N2_26
REMARK    3  A    between atoms: C3_3  and  O9_25
REMARK    4  A    between atoms: C4_4  and  O3_9
REMARK    5  A    between atoms: C5_5  and  C6_6
REMARK    6  A    between atoms: C6_6  and  O1_7
REMARK    7  A    between atoms: O3_9  and  C7_10
REMARK    8  A    between atoms: C8_11  and  N1_21
REMARK    9  A    between atoms: C9_12  and  O7_20
REMARK   10  A    between atoms: C10_13  and  O6_19
REMARK   11  A    between atoms: C11_14  and  C12_15
REMARK   12  A    between atoms: C12_15  and  O4_16
REMARK   13  A    between atoms: O4_16  and  C13_17
REMARK   14  A    between atoms: C14_22  and  C15_24
REMARK   15  A    between atoms: C16_27  and  C17_29
REMARK   16  A    between atoms: O11_30  and  C18_31
REMARK   17  A    between atoms: C19_32  and  O14_43
REMARK   18  A    between atoms: C22_35  and  C23_36
REMARK   19  A    between atoms: C23_36  and  O12_37
REMARK   20  A    between atoms: N4_41  and  C26_42
REMARK                            x       y       z     vdW  Elec       q    Type
REMARK                         _______ _______ _______ _____ _____    ______ ____
ROOT
ATOM      1  C1  UNK A   1      -2.051  48.183  66.722  0.00  0.00    +0.000 C 
ATOM      2  C2  UNK A   1      -0.528  48.046  66.788  0.00  0.00    +0.000 C 
ATOM      3  C3  UNK A   1       0.112  49.280  66.141  0.00  0.00    +0.000 C 
ATOM      4  C4  UNK A   1      -0.468  49.452  64.733  0.00  0.00    +0.000 C 
ATOM      5  C5  UNK A   1      -1.995  49.482  64.822  0.00  0.00    +0.000 C 
ATOM      6  O2  UNK A   1      -2.472  48.250  65.361  0.00  0.00    +0.000 OA
ENDROOT
BRANCH   2   7
ATOM      7  N2  UNK A   1      -0.105  47.948  68.187  0.00  0.00    +0.000 N 
ATOM      8  C16 UNK A   1       0.949  47.176  68.519  0.00  0.00    +0.000 C 
ATOM      9  O10 UNK A   1       1.547  46.564  67.660  0.00  0.00    +0.000 OA
ATOM     10  C17 UNK A   1       1.385  47.075  69.958  0.00  0.00    +0.000 C 
ATOM     11  HN1 UNK A   1      -0.603  48.458  68.901  0.00  0.00    +0.000 HD
ENDBRANCH   2   7
BRANCH   3  12
ATOM     12  O9  UNK A   1      -0.178  50.438  66.927  0.00  0.00    +0.000 OA
ATOM     13  HO5 UNK A   1      -0.849  50.222  67.579  0.00  0.00    +0.000 HD
ENDBRANCH   3  12
BRANCH   1  14
ATOM     14  O11 UNK A   1      -2.657  47.051  67.349  0.00  0.00    +0.000 OA
BRANCH  14  15
ATOM     15  C18 UNK A   1      -3.520  47.557  68.370  0.00  0.00    +0.000 C 
ATOM     16  C19 UNK A   1      -3.529  49.091  68.333  0.00  0.00    +0.000 C 
ATOM     17  C20 UNK A   1      -4.971  49.538  68.074  0.00  0.00    +0.000 C 
ATOM     18  C21 UNK A   1      -5.865  48.304  68.387  0.00  0.00    +0.000 C 
ATOM     19  C22 UNK A   1      -4.959  47.085  68.118  0.00  0.00    +0.000 C 
ATOM     20  O13 UNK A   1      -6.831  48.398  67.316  0.00  0.00    +0.000 OA
ATOM     21  C24 UNK A   1      -6.234  49.059  66.289  0.00  0.00    +0.000 C 
ATOM     22  N3  UNK A   1      -5.192  49.733  66.630  0.00  0.00    +0.000 NA
ATOM     23  N4  UNK A   1      -6.673  49.022  65.088  0.00  0.00    +0.000 N 
ATOM     24  C26 UNK A   1      -5.977  49.760  64.031  0.00  0.00    +0.000 C 
ATOM     25  HN2 UNK A   1      -7.499  48.484  64.869  0.00  0.00    +0.000 HD
BRANCH  16  26
ATOM     26  O14 UNK A   1      -3.076  49.609  69.585  0.00  0.00    +0.000 OA
ATOM     27  HO  UNK A   1      -2.279  50.127  69.448  0.00  0.00    +0.000 HD
ENDBRANCH  16  26
BRANCH  19  28
ATOM     28  C23 UNK A   1      -5.319  45.943  69.069  0.00  0.00    +0.000 C 
BRANCH  28  29
ATOM     29  O12 UNK A   1      -4.142  45.497  69.746  0.00  0.00    +0.000 OA
ATOM     30  HO3 UNK A   1      -3.623  46.257  70.020  0.00  0.00    +0.000 HD
ENDBRANCH  28  29
ENDBRANCH  19  28
ENDBRANCH  14  15
ENDBRANCH   1  14
BRANCH   4  31
ATOM     31  O3  UNK A   1       0.004  50.677  64.168  0.00  0.00    +0.000 OA
BRANCH  31  32
ATOM     32  C7  UNK A   1       0.773  50.331  63.015  0.00  0.00    +0.000 C 
ATOM     33  C8  UNK A   1       0.944  51.566  62.128  0.00  0.00    +0.000 C 
ATOM     34  C9  UNK A   1       1.742  51.177  60.878  0.00  0.00    +0.000 C 
ATOM     35  C10 UNK A   1       3.048  50.504  61.319  0.00  0.00    +0.000 C 
ATOM     36  C11 UNK A   1       2.717  49.350  62.267  0.00  0.00    +0.000 C 
ATOM     37  O5  UNK A   1       2.053  49.851  63.426  0.00  0.00    +0.000 OA
BRANCH  33  38
ATOM     38  N1  UNK A   1      -0.372  52.073  61.733  0.00  0.00    +0.000 N 
ATOM     39  C14 UNK A   1      -0.574  53.400  61.610  0.00  0.00    +0.000 C 
ATOM     40  O8  UNK A   1       0.334  54.174  61.824  0.00  0.00    +0.000 OA
ATOM     41  C15 UNK A   1      -1.929  53.921  61.204  0.00  0.00    +0.000 C 
ATOM     42  HN  UNK A   1      -1.129  51.428  61.554  0.00  0.00    +0.000 HD
ENDBRANCH  33  38
BRANCH  34  43
ATOM     43  O7  UNK A   1       0.976  50.270  60.084  0.00  0.00    +0.000 OA
ATOM     44  HO2 UNK A   1       0.467  49.691  60.657  0.00  0.00    +0.000 HD
ENDBRANCH  34  43
BRANCH  35  45
ATOM     45  O6  UNK A   1       3.737  50.002  60.173  0.00  0.00    +0.000 OA
ATOM     46  HO4 UNK A   1       3.113  49.560  59.592  0.00  0.00    +0.000 HD
ENDBRANCH  35  45
BRANCH  36  47
ATOM     47  C12 UNK A   1       4.012  48.651  62.687  0.00  0.00    +0.000 C 
BRANCH  47  48
ATOM     48  O4  UNK A   1       4.207  47.486  61.883  0.00  0.00    +0.000 OA
ATOM     49  C13 UNK A   1       3.868  46.361  62.696  0.00  0.00    +0.000 C 
ENDBRANCH  47  48
ENDBRANCH  36  47
ENDBRANCH  31  32
ENDBRANCH   4  31
BRANCH   5  50
ATOM     50  C6  UNK A   1      -2.583  49.686  63.425  0.00  0.00    +0.000 C 
BRANCH  50  51
ATOM     51  O1  UNK A   1      -2.789  51.081  63.193  0.00  0.00    +0.000 OA
ATOM     52  HO1 UNK A   1      -1.950  51.499  62.983  0.00  0.00    +0.000 HD
ENDBRANCH  50  51
ENDBRANCH   5  50
TORSDOF 16
ENDMDL
MODEL 4
REMARK VINA RESULT:      -7.3      4.508      9.689
REMARK  Name = smiles:[C@@H]1([C@@H]...
REMARK  20 active torsions:
REMARK  status: ('A' for Active; 'I' for Inactive)
REMARK    1  A    between atoms: C1_1  and  O11_30
REMARK    2  A    between atoms: C2_2  and  N2_26
REMARK    3  A    between atoms: C3_3  and  O9_25
REMARK    4  A    between atoms: C4_4  and  O3_9
REMARK    5  A    between atoms: C5_5  and  C6_6
REMARK    6  A    between atoms: C6_6  and  O1_7
REMARK    7  A    between atoms: O3_9  and  C7_10
REMARK    8  A    between atoms: C8_11  and  N1_21
REMARK    9  A    between atoms: C9_12  and  O7_20
REMARK   10  A    between atoms: C10_13  and  O6_19
REMARK   11  A    between atoms: C11_14  and  C12_15
REMARK   12  A    between atoms: C12_15  and  O4_16
REMARK   13  A    between atoms: O4_16  and  C13_17
REMARK   14  A    between atoms: C14_22  and  C15_24
REMARK   15  A    between atoms: C16_27  and  C17_29
REMARK   16  A    between atoms: O11_30  and  C18_31
REMARK   17  A    between atoms: C19_32  and  O14_43
REMARK   18  A    between atoms: C22_35  and  C23_36
REMARK   19  A    between atoms: C23_36  and  O12_37
REMARK   20  A    between atoms: N4_41  and  C26_42
REMARK                            x       y       z     vdW  Elec       q    Type
REMARK                         _______ _______ _______ _____ _____    ______ ____
ROOT
ATOM      1  C1  UNK A   1      -0.099  49.827  67.055  0.00  0.00    +0.000 C 
ATOM      2  C2  UNK A   1      -0.506  51.174  66.453  0.00  0.00    +0.000 C 
ATOM      3  C3  UNK A   1      -0.805  50.984  64.961  0.00  0.00    +0.000 C 
ATOM      4  C4  UNK A   1       0.404  50.312  64.301  0.00  0.00    +0.000 C 
ATOM      5  C5  UNK A   1       0.742  49.031  65.066  0.00  0.00    +0.000 C 
ATOM      6  O2  UNK A   1       1.082  49.348  66.415  0.00  0.00    +0.000 OA
ENDROOT
BRANCH   2   7
ATOM      7  N2  UNK A   1      -1.703  51.674  67.135  0.00  0.00    +0.000 N 
ATOM      8  C16 UNK A   1      -1.598  52.678  68.028  0.00  0.00    +0.000 C 
ATOM      9  O10 UNK A   1      -0.515  53.168  68.267  0.00  0.00    +0.000 OA
ATOM     10  C17 UNK A   1      -2.829  53.193  68.730  0.00  0.00    +0.000 C 
ATOM     11  HN1 UNK A   1      -2.604  51.266  66.936  0.00  0.00    +0.000 HD
ENDBRANCH   2   7
BRANCH   3  12
ATOM     12  O9  UNK A   1      -1.961  50.158  64.806  0.00  0.00    +0.000 OA
ATOM     13  HO5 UNK A   1      -1.799  49.508  64.118  0.00  0.00    +0.000 HD
ENDBRANCH   3  12
BRANCH   1  14
ATOM     14  O11 UNK A   1       0.154  49.989  68.452  0.00  0.00    +0.000 OA
BRANCH  14  15
ATOM     15  C18 UNK A   1      -0.462  48.881  69.114  0.00  0.00    +0.000 C 
ATOM     16  C19 UNK A   1      -1.694  49.358  69.894  0.00  0.00    +0.000 C 
ATOM     17  C20 UNK A   1      -2.911  48.612  69.337  0.00  0.00    +0.000 C 
ATOM     18  C21 UNK A   1      -2.343  47.401  68.543  0.00  0.00    +0.000 C 
ATOM     19  C22 UNK A   1      -0.945  47.857  68.077  0.00  0.00    +0.000 C 
ATOM     20  O13 UNK A   1      -3.225  47.398  67.398  0.00  0.00    +0.000 OA
ATOM     21  C24 UNK A   1      -3.684  48.668  67.238  0.00  0.00    +0.000 C 
ATOM     22  N3  UNK A   1      -3.557  49.410  68.282  0.00  0.00    +0.000 NA
ATOM     23  N4  UNK A   1      -4.205  49.088  66.148  0.00  0.00    +0.000 N 
ATOM     24  C26 UNK A   1      -4.678  50.470  66.047  0.00  0.00    +0.000 C 
ATOM     25  HN2 UNK A   1      -4.289  48.466  65.357  0.00  0.00    +0.000 HD
BRANCH  16  26
ATOM     26  O14 UNK A   1      -1.534  49.061  71.282  0.00  0.00    +0.000 OA
ATOM     27  HO  UNK A   1      -2.361  49.224  71.742  0.00  0.00    +0.000 HD
ENDBRANCH  16  26
BRANCH  19  28
ATOM     28  C23 UNK A   1       0.008  46.661  68.026  0.00  0.00    +0.000 C 
BRANCH  28  29
ATOM     29  O12 UNK A   1      -0.164  45.865  69.201  0.00  0.00    +0.000 OA
ATOM     30  HO3 UNK A   1      -0.700  45.097  68.991  0.00  0.00    +0.000 HD
ENDBRANCH  28  29
ENDBRANCH  19  28
ENDBRANCH  14  15
ENDBRANCH   1  14
BRANCH   4  31
ATOM     31  O3  UNK A   1       0.090  49.992  62.944  0.00  0.00    +0.000 OA
BRANCH  31  32
ATOM     32  C7  UNK A   1      -0.181  51.228  62.280  0.00  0.00    +0.000 C 
ATOM     33  C8  UNK A   1       0.581  51.272  60.954  0.00  0.00    +0.000 C 
ATOM     34  C9  UNK A   1       0.310  52.614  60.266  0.00  0.00    +0.000 C 
ATOM     35  C10 UNK A   1      -1.206  52.810  60.153  0.00  0.00    +0.000 C 
ATOM     36  C11 UNK A   1      -1.833  52.650  61.539  0.00  0.00    +0.000 C 
ATOM     37  O5  UNK A   1      -1.583  51.336  62.034  0.00  0.00    +0.000 OA
BRANCH  33  38
ATOM     38  N1  UNK A   1       2.017  51.131  61.209  0.00  0.00    +0.000 N 
ATOM     39  C14 UNK A   1       2.679  50.049  60.755  0.00  0.00    +0.000 C 
ATOM     40  O8  UNK A   1       2.087  49.192  60.134  0.00  0.00    +0.000 OA
ATOM     41  C15 UNK A   1       4.156  49.904  61.018  0.00  0.00    +0.000 C 
ATOM     42  HN  UNK A   1       2.511  51.845  61.726  0.00  0.00    +0.000 HD
ENDBRANCH  33  38
BRANCH  34  43
ATOM     43  O7  UNK A   1       0.877  53.673  61.040  0.00  0.00    +0.000 OA
ATOM     44  HO2 UNK A   1       0.219  54.359  61.177  0.00  0.00    +0.000 HD
ENDBRANCH  34  43
BRANCH  35  45
ATOM     45  O6  UNK A   1      -1.483  54.119  59.650  0.00  0.00    +0.000 OA
ATOM     46  HO4 UNK A   1      -2.394  54.161  59.351  0.00  0.00    +0.000 HD
ENDBRANCH  35  45
BRANCH  36  47
ATOM     47  C12 UNK A   1      -3.343  52.876  61.443  0.00  0.00    +0.000 C 
BRANCH  47  48
ATOM     48  O4  UNK A   1      -3.962  52.484  62.670  0.00  0.00    +0.000 OA
ATOM     49  C13 UNK A   1      -5.352  52.295  62.391  0.00  0.00    +0.000 C 
ENDBRANCH  47  48
ENDBRANCH  36  47
ENDBRANCH  31  32
ENDBRANCH   4  31
BRANCH   5  50
ATOM     50  C6  UNK A   1       1.929  48.335  64.394  0.00  0.00    +0.000 C 
BRANCH  50  51
ATOM     51  O1  UNK A   1       1.792  46.920  64.533  0.00  0.00    +0.000 OA
ATOM     52  HO1 UNK A   1       1.069  46.612  63.981  0.00  0.00    +0.000 HD
ENDBRANCH  50  51
ENDBRANCH   5  50
TORSDOF 16
ENDMDL
MODEL 5
REMARK VINA RESULT:      -7.1      5.646      8.931
REMARK  Name = smiles:[C@@H]1([C@@H]...
REMARK  20 active torsions:
REMARK  status: ('A' for Active; 'I' for Inactive)
REMARK    1  A    between atoms: C1_1  and  O11_30
REMARK    2  A    between atoms: C2_2  and  N2_26
REMARK    3  A    between atoms: C3_3  and  O9_25
REMARK    4  A    between atoms: C4_4  and  O3_9
REMARK    5  A    between atoms: C5_5  and  C6_6
REMARK    6  A    between atoms: C6_6  and  O1_7
REMARK    7  A    between atoms: O3_9  and  C7_10
REMARK    8  A    between atoms: C8_11  and  N1_21
REMARK    9  A    between atoms: C9_12  and  O7_20
REMARK   10  A    between atoms: C10_13  and  O6_19
REMARK   11  A    between atoms: C11_14  and  C12_15
REMARK   12  A    between atoms: C12_15  and  O4_16
REMARK   13  A    between atoms: O4_16  and  C13_17
REMARK   14  A    between atoms: C14_22  and  C15_24
REMARK   15  A    between atoms: C16_27  and  C17_29
REMARK   16  A    between atoms: O11_30  and  C18_31
REMARK   17  A    between atoms: C19_32  and  O14_43
REMARK   18  A    between atoms: C22_35  and  C23_36
REMARK   19  A    between atoms: C23_36  and  O12_37
REMARK   20  A    between atoms: N4_41  and  C26_42
REMARK                            x       y       z     vdW  Elec       q    Type
REMARK                         _______ _______ _______ _____ _____    ______ ____
ROOT
ATOM      1  C1  UNK A   1       0.906  50.626  62.963  0.00  0.00    +0.000 C 
ATOM      2  C2  UNK A   1      -0.459  51.306  63.095  0.00  0.00    +0.000 C 
ATOM      3  C3  UNK A   1      -0.765  51.525  64.581  0.00  0.00    +0.000 C 
ATOM      4  C4  UNK A   1      -0.629  50.186  65.314  0.00  0.00    +0.000 C 
ATOM      5  C5  UNK A   1       0.749  49.591  65.013  0.00  0.00    +0.000 C 
ATOM      6  O2  UNK A   1       0.879  49.357  63.612  0.00  0.00    +0.000 OA
ENDROOT
BRANCH   2   7
ATOM      7  N2  UNK A   1      -0.434  52.596  62.402  0.00  0.00    +0.000 N 
ATOM      8  C16 UNK A   1      -1.454  52.946  61.593  0.00  0.00    +0.000 C 
ATOM      9  O10 UNK A   1      -2.393  52.194  61.440  0.00  0.00    +0.000 OA
ATOM     10  C17 UNK A   1      -1.428  54.273  60.880  0.00  0.00    +0.000 C 
ATOM     11  HN1 UNK A   1       0.348  53.222  62.529  0.00  0.00    +0.000 HD
ENDBRANCH   2   7
BRANCH   3  12
ATOM     12  O9  UNK A   1       0.160  52.470  65.126  0.00  0.00    +0.000 OA
ATOM     13  HO5 UNK A   1      -0.319  53.131  65.631  0.00  0.00    +0.000 HD
ENDBRANCH   3  12
BRANCH   1  14
ATOM     14  O11 UNK A   1       1.213  50.443  61.579  0.00  0.00    +0.000 OA
BRANCH  14  15
ATOM     15  C18 UNK A   1       2.626  50.247  61.492  0.00  0.00    +0.000 C 
ATOM     16  C19 UNK A   1       2.966  48.775  61.761  0.00  0.00    +0.000 C 
ATOM     17  C20 UNK A   1       3.667  48.228  60.513  0.00  0.00    +0.000 C 
ATOM     18  C21 UNK A   1       4.120  49.472  59.697  0.00  0.00    +0.000 C 
ATOM     19  C22 UNK A   1       3.112  50.578  60.074  0.00  0.00    +0.000 C 
ATOM     20  O13 UNK A   1       3.826  49.029  58.353  0.00  0.00    +0.000 OA
ATOM     21  C24 UNK A   1       2.833  48.104  58.441  0.00  0.00    +0.000 C 
ATOM     22  N3  UNK A   1       2.686  47.597  59.614  0.00  0.00    +0.000 NA
ATOM     23  N4  UNK A   1       2.111  47.761  57.442  0.00  0.00    +0.000 N 
ATOM     24  C26 UNK A   1       1.058  46.757  57.610  0.00  0.00    +0.000 C 
ATOM     25  HN2 UNK A   1       2.268  48.182  56.538  0.00  0.00    +0.000 HD
BRANCH  16  26
ATOM     26  O14 UNK A   1       3.835  48.677  62.891  0.00  0.00    +0.000 OA
ATOM     27  HO  UNK A   1       3.350  48.317  63.638  0.00  0.00    +0.000 HD
ENDBRANCH  16  26
BRANCH  19  28
ATOM     28  C23 UNK A   1       3.799  51.944  60.052  0.00  0.00    +0.000 C 
BRANCH  28  29
ATOM     29  O12 UNK A   1       4.984  51.870  59.256  0.00  0.00    +0.000 OA
ATOM     30  HO3 UNK A   1       5.689  51.467  59.768  0.00  0.00    +0.000 HD
ENDBRANCH  28  29
ENDBRANCH  19  28
ENDBRANCH  14  15
ENDBRANCH   1  14
BRANCH   4  31
ATOM     31  O3  UNK A   1      -0.765  50.395  66.721  0.00  0.00    +0.000 OA
BRANCH  31  32
ATOM     32  C7  UNK A   1      -1.984  49.763  67.116  0.00  0.00    +0.000 C 
ATOM     33  C8  UNK A   1      -2.041  49.679  68.643  0.00  0.00    +0.000 C 
ATOM     34  C9  UNK A   1      -3.336  48.970  69.056  0.00  0.00    +0.000 C 
ATOM     35  C10 UNK A   1      -4.520  49.688  68.397  0.00  0.00    +0.000 C 
ATOM     36  C11 UNK A   1      -4.275  49.771  66.889  0.00  0.00    +0.000 C 
ATOM     37  O5  UNK A   1      -3.090  50.523  66.633  0.00  0.00    +0.000 OA
BRANCH  33  38
ATOM     38  N1  UNK A   1      -0.888  48.922  69.136  0.00  0.00    +0.000 N 
ATOM     39  C14 UNK A   1      -0.537  49.000  70.435  0.00  0.00    +0.000 C 
ATOM     40  O8  UNK A   1      -1.177  49.695  71.196  0.00  0.00    +0.000 OA
ATOM     41  C15 UNK A   1       0.650  48.222  70.943  0.00  0.00    +0.000 C 
ATOM     42  HN  UNK A   1      -0.355  48.343  68.503  0.00  0.00    +0.000 HD
ENDBRANCH  33  38
BRANCH  34  43
ATOM     43  O7  UNK A   1      -3.296  47.608  68.624  0.00  0.00    +0.000 OA
ATOM     44  HO2 UNK A   1      -4.124  47.176  68.848  0.00  0.00    +0.000 HD
ENDBRANCH  34  43
BRANCH  35  45
ATOM     45  O6  UNK A   1      -5.722  48.956  68.648  0.00  0.00    +0.000 OA
ATOM     46  HO4 UNK A   1      -6.458  49.568  68.725  0.00  0.00    +0.000 HD
ENDBRANCH  35  45
BRANCH  36  47
ATOM     47  C12 UNK A   1      -5.466  50.457  66.218  0.00  0.00    +0.000 C 
BRANCH  47  48
ATOM     48  O4  UNK A   1      -6.491  49.494  65.967  0.00  0.00    +0.000 OA
ATOM     49  C13 UNK A   1      -7.687  50.226  65.687  0.00  0.00    +0.000 C 
ENDBRANCH  47  48
ENDBRANCH  36  47
ENDBRANCH  31  32
ENDBRANCH   4  31
BRANCH   5  50
ATOM     50  C6  UNK A   1       0.907  48.269  65.766  0.00  0.00    +0.000 C 
BRANCH  50  51
ATOM     51  O1  UNK A   1       1.395  48.525  67.084  0.00  0.00    +0.000 OA
ATOM     52  HO1 UNK A   1       0.946  47.952  67.710  0.00  0.00    +0.000 HD
ENDBRANCH  50  51
ENDBRANCH   5  50
TORSDOF 16
ENDMDL
MODEL 6
REMARK VINA RESULT:      -7.0      4.313     10.166
REMARK  Name = smiles:[C@@H]1([C@@H]...
REMARK  20 active torsions:
REMARK  status: ('A' for Active; 'I' for Inactive)
REMARK    1  A    between atoms: C1_1  and  O11_30
REMARK    2  A    between atoms: C2_2  and  N2_26
REMARK    3  A    between atoms: C3_3  and  O9_25
REMARK    4  A    between atoms: C4_4  and  O3_9
REMARK    5  A    between atoms: C5_5  and  C6_6
REMARK    6  A    between atoms: C6_6  and  O1_7
REMARK    7  A    between atoms: O3_9  and  C7_10
REMARK    8  A    between atoms: C8_11  and  N1_21
REMARK    9  A    between atoms: C9_12  and  O7_20
REMARK   10  A    between atoms: C10_13  and  O6_19
REMARK   11  A    between atoms: C11_14  and  C12_15
REMARK   12  A    between atoms: C12_15  and  O4_16
REMARK   13  A    between atoms: O4_16  and  C13_17
REMARK   14  A    between atoms: C14_22  and  C15_24
REMARK   15  A    between atoms: C16_27  and  C17_29
REMARK   16  A    between atoms: O11_30  and  C18_31
REMARK   17  A    between atoms: C19_32  and  O14_43
REMARK   18  A    between atoms: C22_35  and  C23_36
REMARK   19  A    between atoms: C23_36  and  O12_37
REMARK   20  A    between atoms: N4_41  and  C26_42
REMARK                            x       y       z     vdW  Elec       q    Type
REMARK                         _______ _______ _______ _____ _____    ______ ____
ROOT
ATOM      1  C1  UNK A   1      -3.181  49.280  65.676  0.00  0.00    +0.000 C 
ATOM      2  C2  UNK A   1      -1.979  49.485  64.751  0.00  0.00    +0.000 C 
ATOM      3  C3  UNK A   1      -2.166  50.791  63.971  0.00  0.00    +0.000 C 
ATOM      4  C4  UNK A   1      -3.529  50.754  63.271  0.00  0.00    +0.000 C 
ATOM      5  C5  UNK A   1      -4.614  50.454  64.308  0.00  0.00    +0.000 C 
ATOM      6  O2  UNK A   1      -4.375  49.179  64.902  0.00  0.00    +0.000 OA
ENDROOT
BRANCH   2   7
ATOM      7  N2  UNK A   1      -0.753  49.559  65.550  0.00  0.00    +0.000 N 
ATOM      8  C16 UNK A   1       0.260  48.703  65.309  0.00  0.00    +0.000 C 
ATOM      9  O10 UNK A   1       0.157  47.872  64.432  0.00  0.00    +0.000 OA
ATOM     10  C17 UNK A   1       1.521  48.779  66.131  0.00  0.00    +0.000 C 
ATOM     11  HN1 UNK A   1      -0.668  50.251  66.279  0.00  0.00    +0.000 HD
ENDBRANCH   2   7
BRANCH   3  12
ATOM     12  O9  UNK A   1      -2.116  51.899  64.873  0.00  0.00    +0.000 OA
ATOM     13  HO5 UNK A   1      -1.205  52.181  64.983  0.00  0.00    +0.000 HD
ENDBRANCH   3  12
BRANCH   1  14
ATOM     14  O11 UNK A   1      -3.002  48.079  66.429  0.00  0.00    +0.000 OA
BRANCH  14  15
ATOM     15  C18 UNK A   1      -3.395  48.371  67.771  0.00  0.00    +0.000 C 
ATOM     16  C19 UNK A   1      -2.165  48.361  68.690  0.00  0.00    +0.000 C 
ATOM     17  C20 UNK A   1      -2.050  49.753  69.320  0.00  0.00    +0.000 C 
ATOM     18  C21 UNK A   1      -3.434  50.432  69.115  0.00  0.00    +0.000 C 
ATOM     19  C22 UNK A   1      -4.008  49.777  67.842  0.00  0.00    +0.000 C 
ATOM     20  O13 UNK A   1      -3.021  51.778  68.785  0.00  0.00    +0.000 OA
ATOM     21  C24 UNK A   1      -1.773  51.700  68.253  0.00  0.00    +0.000 C 
ATOM     22  N3  UNK A   1      -1.155  50.602  68.516  0.00  0.00    +0.000 NA
ATOM     23  N4  UNK A   1      -1.253  52.639  67.556  0.00  0.00    +0.000 N 
ATOM     24  C26 UNK A   1       0.099  52.485  67.013  0.00  0.00    +0.000 C 
ATOM     25  HN2 UNK A   1      -1.774  53.486  67.381  0.00  0.00    +0.000 HD
BRANCH  16  26
ATOM     26  O14 UNK A   1      -2.331  47.376  69.711  0.00  0.00    +0.000 OA
ATOM     27  HO  UNK A   1      -1.637  46.716  69.634  0.00  0.00    +0.000 HD
ENDBRANCH  16  26
BRANCH  19  28
ATOM     28  C23 UNK A   1      -5.532  49.689  67.939  0.00  0.00    +0.000 C 
BRANCH  28  29
ATOM     29  O12 UNK A   1      -5.976  48.453  67.374  0.00  0.00    +0.000 OA
ATOM     30  HO3 UNK A   1      -5.685  47.725  67.928  0.00  0.00    +0.000 HD
ENDBRANCH  28  29
ENDBRANCH  19  28
ENDBRANCH  14  15
ENDBRANCH   1  14
BRANCH   4  31
ATOM     31  O3  UNK A   1      -3.787  52.020  62.661  0.00  0.00    +0.000 OA
BRANCH  31  32
ATOM     32  C7  UNK A   1      -2.913  52.121  61.534  0.00  0.00    +0.000 C 
ATOM     33  C8  UNK A   1      -3.693  52.657  60.332  0.00  0.00    +0.000 C 
ATOM     34  C9  UNK A   1      -2.755  52.730  59.121  0.00  0.00    +0.000 C 
ATOM     35  C10 UNK A   1      -1.515  53.543  59.510  0.00  0.00    +0.000 C 
ATOM     36  C11 UNK A   1      -0.900  52.940  60.774  0.00  0.00    +0.000 C 
ATOM     37  O5  UNK A   1      -1.839  53.007  61.847  0.00  0.00    +0.000 OA
BRANCH  33  38
ATOM     38  N1  UNK A   1      -4.812  51.760  60.034  0.00  0.00    +0.000 N 
ATOM     39  C14 UNK A   1      -6.075  52.230  60.053  0.00  0.00    +0.000 C 
ATOM     40  O8  UNK A   1      -6.285  53.395  60.315  0.00  0.00    +0.000 OA
ATOM     41  C15 UNK A   1      -7.227  51.307  59.747  0.00  0.00    +0.000 C 
ATOM     42  HN  UNK A   1      -4.637  50.790  59.814  0.00  0.00    +0.000 HD
ENDBRANCH  33  38
BRANCH  34  43
ATOM     43  O7  UNK A   1      -2.366  51.410  58.736  0.00  0.00    +0.000 OA
ATOM     44  HO2 UNK A   1      -2.704  51.220  57.857  0.00  0.00    +0.000 HD
ENDBRANCH  34  43
BRANCH  35  45
ATOM     45  O6  UNK A   1      -0.562  53.499  58.445  0.00  0.00    +0.000 OA
ATOM     46  HO4 UNK A   1      -1.009  53.651  57.609  0.00  0.00    +0.000 HD
ENDBRANCH  35  45
BRANCH  36  47
ATOM     47  C12 UNK A   1       0.357  53.725  61.152  0.00  0.00    +0.000 C 
BRANCH  47  48
ATOM     48  O4  UNK A   1       1.505  53.083  60.593  0.00  0.00    +0.000 OA
ATOM     49  C13 UNK A   1       1.697  51.869  61.324  0.00  0.00    +0.000 C 
ENDBRANCH  47  48
ENDBRANCH  36  47
ENDBRANCH  31  32
ENDBRANCH   4  31
BRANCH   5  50
ATOM     50  C6  UNK A   1      -5.983  50.446  63.625  0.00  0.00    +0.000 C 
BRANCH  50  51
ATOM     51  O1  UNK A   1      -6.478  51.784  63.534  0.00  0.00    +0.000 OA
ATOM     52  HO1 UNK A   1      -7.374  51.818  63.877  0.00  0.00    +0.000 HD
ENDBRANCH  50  51
ENDBRANCH   5  50
TORSDOF 16
ENDMDL
MODEL 7
REMARK VINA RESULT:      -6.9      3.557      6.677
REMARK  Name = smiles:[C@@H]1([C@@H]...
REMARK  20 active torsions:
REMARK  status: ('A' for Active; 'I' for Inactive)
REMARK    1  A    between atoms: C1_1  and  O11_30
REMARK    2  A    between atoms: C2_2  and  N2_26
REMARK    3  A    between atoms: C3_3  and  O9_25
REMARK    4  A    between atoms: C4_4  and  O3_9
REMARK    5  A    between atoms: C5_5  and  C6_6
REMARK    6  A    between atoms: C6_6  and  O1_7
REMARK    7  A    between atoms: O3_9  and  C7_10
REMARK    8  A    between atoms: C8_11  and  N1_21
REMARK    9  A    between atoms: C9_12  and  O7_20
REMARK   10  A    between atoms: C10_13  and  O6_19
REMARK   11  A    between atoms: C11_14  and  C12_15
REMARK   12  A    between atoms: C12_15  and  O4_16
REMARK   13  A    between atoms: O4_16  and  C13_17
REMARK   14  A    between atoms: C14_22  and  C15_24
REMARK   15  A    between atoms: C16_27  and  C17_29
REMARK   16  A    between atoms: O11_30  and  C18_31
REMARK   17  A    between atoms: C19_32  and  O14_43
REMARK   18  A    between atoms: C22_35  and  C23_36
REMARK   19  A    between atoms: C23_36  and  O12_37
REMARK   20  A    between atoms: N4_41  and  C26_42
REMARK                            x       y       z     vdW  Elec       q    Type
REMARK                         _______ _______ _______ _____ _____    ______ ____
ROOT
ATOM      1  C1  UNK A   1      -3.901  51.494  64.913  0.00  0.00    +0.000 C 
ATOM      2  C2  UNK A   1      -4.035  49.981  64.727  0.00  0.00    +0.000 C 
ATOM      3  C3  UNK A   1      -4.522  49.357  66.039  0.00  0.00    +0.000 C 
ATOM      4  C4  UNK A   1      -3.584  49.795  67.169  0.00  0.00    +0.000 C 
ATOM      5  C5  UNK A   1      -3.485  51.322  67.171  0.00  0.00    +0.000 C 
ATOM      6  O2  UNK A   1      -2.941  51.773  65.931  0.00  0.00    +0.000 OA
ENDROOT
BRANCH   2   7
ATOM      7  N2  UNK A   1      -5.000  49.702  63.660  0.00  0.00    +0.000 N 
ATOM      8  C16 UNK A   1      -4.938  48.538  62.984  0.00  0.00    +0.000 C 
ATOM      9  O10 UNK A   1      -4.084  47.722  63.258  0.00  0.00    +0.000 OA
ATOM     10  C17 UNK A   1      -5.930  48.251  61.886  0.00  0.00    +0.000 C 
ATOM     11  HN1 UNK A   1      -5.710  50.382  63.433  0.00  0.00    +0.000 HD
ENDBRANCH   2   7
BRANCH   3  12
ATOM     12  O9  UNK A   1      -5.852  49.803  66.316  0.00  0.00    +0.000 OA
ATOM     13  HO5 UNK A   1      -6.467  49.363  65.725  0.00  0.00    +0.000 HD
ENDBRANCH   3  12
BRANCH   1  14
ATOM     14  O11 UNK A   1      -3.474  52.089  63.686  0.00  0.00    +0.000 OA
BRANCH  14  15
ATOM     15  C18 UNK A   1      -2.323  51.361  63.253  0.00  0.00    +0.000 C 
ATOM     16  C19 UNK A   1      -2.439  51.042  61.756  0.00  0.00    +0.000 C 
ATOM     17  C20 UNK A   1      -1.245  51.693  61.051  0.00  0.00    +0.000 C 
ATOM     18  C21 UNK A   1      -0.214  52.018  62.169  0.00  0.00    +0.000 C 
ATOM     19  C22 UNK A   1      -1.063  52.218  63.441  0.00  0.00    +0.000 C 
ATOM     20  O13 UNK A   1       0.254  53.313  61.728  0.00  0.00    +0.000 OA
ATOM     21  C24 UNK A   1      -0.739  53.871  60.987  0.00  0.00    +0.000 C 
ATOM     22  N3  UNK A   1      -1.614  53.031  60.558  0.00  0.00    +0.000 NA
ATOM     23  N4  UNK A   1      -0.796  55.123  60.730  0.00  0.00    +0.000 N 
ATOM     24  C26 UNK A   1      -1.897  55.656  59.924  0.00  0.00    +0.000 C 
ATOM     25  HN2 UNK A   1      -0.082  55.744  61.083  0.00  0.00    +0.000 HD
BRANCH  16  26
ATOM     26  O14 UNK A   1      -2.410  49.627  61.559  0.00  0.00    +0.000 OA
ATOM     27  HO  UNK A   1      -3.054  49.209  62.136  0.00  0.00    +0.000 HD
ENDBRANCH  16  26
BRANCH  19  28
ATOM     28  C23 UNK A   1      -0.282  51.753  64.672  0.00  0.00    +0.000 C 
BRANCH  28  29
ATOM     29  O12 UNK A   1      -0.076  52.860  65.552  0.00  0.00    +0.000 OA
ATOM     30  HO3 UNK A   1      -0.650  52.772  66.317  0.00  0.00    +0.000 HD
ENDBRANCH  28  29
ENDBRANCH  19  28
ENDBRANCH  14  15
ENDBRANCH   1  14
BRANCH   4  31
ATOM     31  O3  UNK A   1      -4.104  49.347  68.423  0.00  0.00    +0.000 OA
BRANCH  31  32
ATOM     32  C7  UNK A   1      -3.179  48.385  68.933  0.00  0.00    +0.000 C 
ATOM     33  C8  UNK A   1      -3.536  46.999  68.393  0.00  0.00    +0.000 C 
ATOM     34  C9  UNK A   1      -2.558  45.970  68.973  0.00  0.00    +0.000 C 
ATOM     35  C10 UNK A   1      -1.127  46.435  68.680  0.00  0.00    +0.000 C 
ATOM     36  C11 UNK A   1      -0.952  47.863  69.198  0.00  0.00    +0.000 C 
ATOM     37  O5  UNK A   1      -1.857  48.736  68.524  0.00  0.00    +0.000 OA
BRANCH  33  38
ATOM     38  N1  UNK A   1      -4.904  46.656  68.790  0.00  0.00    +0.000 N 
ATOM     39  C14 UNK A   1      -5.765  46.161  67.880  0.00  0.00    +0.000 C 
ATOM     40  O8  UNK A   1      -5.408  45.998  66.733  0.00  0.00    +0.000 OA
ATOM     41  C15 UNK A   1      -7.173  45.808  68.289  0.00  0.00    +0.000 C 
ATOM     42  HN  UNK A   1      -5.201  46.791  69.746  0.00  0.00    +0.000 HD
ENDBRANCH  33  38
BRANCH  34  43
ATOM     43  O7  UNK A   1      -2.753  45.866  70.384  0.00  0.00    +0.000 OA
ATOM     44  HO2 UNK A   1      -2.543  46.705  70.801  0.00  0.00    +0.000 HD
ENDBRANCH  34  43
BRANCH  35  45
ATOM     45  O6  UNK A   1      -0.200  45.569  69.338  0.00  0.00    +0.000 OA
ATOM     46  HO4 UNK A   1       0.534  46.086  69.681  0.00  0.00    +0.000 HD
ENDBRANCH  35  45
BRANCH  36  47
ATOM     47  C12 UNK A   1       0.484  48.325  68.940  0.00  0.00    +0.000 C 
BRANCH  47  48
ATOM     48  O4  UNK A   1       1.314  47.936  70.037  0.00  0.00    +0.000 OA
ATOM     49  C13 UNK A   1       0.625  48.315  71.231  0.00  0.00    +0.000 C 
ENDBRANCH  47  48
ENDBRANCH  36  47
ENDBRANCH  31  32
ENDBRANCH   4  31
BRANCH   5  50
ATOM     50  C6  UNK A   1      -2.575  51.772  68.316  0.00  0.00    +0.000 C 
BRANCH  50  51
ATOM     51  O1  UNK A   1      -1.217  51.460  67.997  0.00  0.00    +0.000 OA
ATOM     52  HO1 UNK A   1      -1.071  51.587  67.057  0.00  0.00    +0.000 HD
ENDBRANCH  50  51
ENDBRANCH   5  50
TORSDOF 16
ENDMDL
MODEL 8
REMARK VINA RESULT:      -6.8      5.629     10.581
REMARK  Name = smiles:[C@@H]1([C@@H]...
REMARK  20 active torsions:
REMARK  status: ('A' for Active; 'I' for Inactive)
REMARK    1  A    between atoms: C1_1  and  O11_30
REMARK    2  A    between atoms: C2_2  and  N2_26
REMARK    3  A    between atoms: C3_3  and  O9_25
REMARK    4  A    between atoms: C4_4  and  O3_9
REMARK    5  A    between atoms: C5_5  and  C6_6
REMARK    6  A    between atoms: C6_6  and  O1_7
REMARK    7  A    between atoms: O3_9  and  C7_10
REMARK    8  A    between atoms: C8_11  and  N1_21
REMARK    9  A    between atoms: C9_12  and  O7_20
REMARK   10  A    between atoms: C10_13  and  O6_19
REMARK   11  A    between atoms: C11_14  and  C12_15
REMARK   12  A    between atoms: C12_15  and  O4_16
REMARK   13  A    between atoms: O4_16  and  C13_17
REMARK   14  A    between atoms: C14_22  and  C15_24
REMARK   15  A    between atoms: C16_27  and  C17_29
REMARK   16  A    between atoms: O11_30  and  C18_31
REMARK   17  A    between atoms: C19_32  and  O14_43
REMARK   18  A    between atoms: C22_35  and  C23_36
REMARK   19  A    between atoms: C23_36  and  O12_37
REMARK   20  A    between atoms: N4_41  and  C26_42
REMARK                            x       y       z     vdW  Elec       q    Type
REMARK                         _______ _______ _______ _____ _____    ______ ____
ROOT
ATOM      1  C1  UNK A   1      -1.591  49.158  64.830  0.00  0.00    +0.000 C 
ATOM      2  C2  UNK A   1      -0.064  49.120  64.917  0.00  0.00    +0.000 C 
ATOM      3  C3  UNK A   1       0.499  50.443  64.386  0.00  0.00    +0.000 C 
ATOM      4  C4  UNK A   1      -0.069  50.691  62.985  0.00  0.00    +0.000 C 
ATOM      5  C5  UNK A   1      -1.596  50.610  63.044  0.00  0.00    +0.000 C 
ATOM      6  O2  UNK A   1      -1.995  49.309  63.470  0.00  0.00    +0.000 OA
ENDROOT
BRANCH   2   7
ATOM      7  N2  UNK A   1       0.343  48.936  66.313  0.00  0.00    +0.000 N 
ATOM      8  C16 UNK A   1       1.138  47.901  66.651  0.00  0.00    +0.000 C 
ATOM      9  O10 UNK A   1       1.515  47.123  65.801  0.00  0.00    +0.000 OA
ATOM     10  C17 UNK A   1       1.556  47.711  68.086  0.00  0.00    +0.000 C 
ATOM     11  HN1 UNK A   1       0.028  49.584  67.019  0.00  0.00    +0.000 HD
ENDBRANCH   2   7
BRANCH   3  12
ATOM     12  O9  UNK A   1       0.117  51.510  65.258  0.00  0.00    +0.000 OA
ATOM     13  HO5 UNK A   1       0.491  52.334  64.938  0.00  0.00    +0.000 HD
ENDBRANCH   3  12
BRANCH   1  14
ATOM     14  O11 UNK A   1      -2.127  47.939  65.350  0.00  0.00    +0.000 OA
BRANCH  14  15
ATOM     15  C18 UNK A   1      -3.462  48.223  65.775  0.00  0.00    +0.000 C 
ATOM     16  C19 UNK A   1      -3.871  47.253  66.892  0.00  0.00    +0.000 C 
ATOM     17  C20 UNK A   1      -4.203  48.091  68.131  0.00  0.00    +0.000 C 
ATOM     18  C21 UNK A   1      -4.406  49.546  67.622  0.00  0.00    +0.000 C 
ATOM     19  C22 UNK A   1      -3.535  49.643  66.352  0.00  0.00    +0.000 C 
ATOM     20  O13 UNK A   1      -3.753  50.289  68.677  0.00  0.00    +0.000 OA
ATOM     21  C24 UNK A   1      -2.828  49.466  69.239  0.00  0.00    +0.000 C 
ATOM     22  N3  UNK A   1      -3.015  48.216  68.992  0.00  0.00    +0.000 NA
ATOM     23  N4  UNK A   1      -1.860  49.894  69.957  0.00  0.00    +0.000 N 
ATOM     24  C26 UNK A   1      -0.900  48.948  70.531  0.00  0.00    +0.000 C 
ATOM     25  HN2 UNK A   1      -1.758  50.884  70.129  0.00  0.00    +0.000 HD
BRANCH  16  26
ATOM     26  O14 UNK A   1      -5.019  46.505  66.488  0.00  0.00    +0.000 OA
ATOM     27  HO  UNK A   1      -4.786  45.577  66.410  0.00  0.00    +0.000 HD
ENDBRANCH  16  26
BRANCH  19  28
ATOM     28  C23 UNK A   1      -4.182  50.595  65.344  0.00  0.00    +0.000 C 
BRANCH  28  29
ATOM     29  O12 UNK A   1      -4.089  51.937  65.828  0.00  0.00    +0.000 OA
ATOM     30  HO3 UNK A   1      -3.186  52.118  66.099  0.00  0.00    +0.000 HD
ENDBRANCH  28  29
ENDBRANCH  19  28
ENDBRANCH  14  15
ENDBRANCH   1  14
BRANCH   4  31
ATOM     31  O3  UNK A   1       0.325  51.988  62.532  0.00  0.00    +0.000 OA
BRANCH  31  32
ATOM     32  C7  UNK A   1       1.085  51.796  61.337  0.00  0.00    +0.000 C 
ATOM     33  C8  UNK A   1       1.251  53.136  60.618  0.00  0.00    +0.000 C 
ATOM     34  C9  UNK A   1       2.039  52.912  59.322  0.00  0.00    +0.000 C 
ATOM     35  C10 UNK A   1       3.346  52.187  59.661  0.00  0.00    +0.000 C 
ATOM     36  C11 UNK A   1       3.021  50.919  60.452  0.00  0.00    +0.000 C 
ATOM     37  O5  UNK A   1       2.367  51.265  61.672  0.00  0.00    +0.000 OA
BRANCH  33  38
ATOM     38  N1  UNK A   1      -0.068  53.690  60.303  0.00  0.00    +0.000 N 
ATOM     39  C14 UNK A   1      -0.292  55.012  60.437  0.00  0.00    +0.000 C 
ATOM     40  O8  UNK A   1       0.598  55.743  60.816  0.00  0.00    +0.000 OA
ATOM     41  C15 UNK A   1      -1.649  55.583  60.113  0.00  0.00    +0.000 C 
ATOM     42  HN  UNK A   1      -0.809  53.082  59.987  0.00  0.00    +0.000 HD
ENDBRANCH  33  38
BRANCH  34  43
ATOM     43  O7  UNK A   1       1.265  52.117  58.422  0.00  0.00    +0.000 OA
ATOM     44  HO2 UNK A   1       1.155  51.235  58.786  0.00  0.00    +0.000 HD
ENDBRANCH  34  43
BRANCH  35  45
ATOM     45  O6  UNK A   1       4.026  51.838  58.453  0.00  0.00    +0.000 OA
ATOM     46  HO4 UNK A   1       3.533  52.174  57.700  0.00  0.00    +0.000 HD
ENDBRANCH  35  45
BRANCH  36  47
ATOM     47  C12 UNK A   1       4.318  50.171  60.768  0.00  0.00    +0.000 C 
BRANCH  47  48
ATOM     48  O4  UNK A   1       4.112  49.316  61.895  0.00  0.00    +0.000 OA
ATOM     49  C13 UNK A   1       5.046  48.240  61.773  0.00  0.00    +0.000 C 
ENDBRANCH  47  48
ENDBRANCH  36  47
ENDBRANCH  31  32
ENDBRANCH   4  31
BRANCH   5  50
ATOM     50  C6  UNK A   1      -2.175  50.889  61.655  0.00  0.00    +0.000 C 
BRANCH  50  51
ATOM     51  O1  UNK A   1      -2.436  52.287  61.519  0.00  0.00    +0.000 OA
ATOM     52  HO1 UNK A   1      -1.668  52.721  61.141  0.00  0.00    +0.000 HD
ENDBRANCH  50  51
ENDBRANCH   5  50
TORSDOF 16
ENDMDL
MODEL 9
REMARK VINA RESULT:      -6.6      4.246      9.672
REMARK  Name = smiles:[C@@H]1([C@@H]...
REMARK  20 active torsions:
REMARK  status: ('A' for Active; 'I' for Inactive)
REMARK    1  A    between atoms: C1_1  and  O11_30
REMARK    2  A    between atoms: C2_2  and  N2_26
REMARK    3  A    between atoms: C3_3  and  O9_25
REMARK    4  A    between atoms: C4_4  and  O3_9
REMARK    5  A    between atoms: C5_5  and  C6_6
REMARK    6  A    between atoms: C6_6  and  O1_7
REMARK    7  A    between atoms: O3_9  and  C7_10
REMARK    8  A    between atoms: C8_11  and  N1_21
REMARK    9  A    between atoms: C9_12  and  O7_20
REMARK   10  A    between atoms: C10_13  and  O6_19
REMARK   11  A    between atoms: C11_14  and  C12_15
REMARK   12  A    between atoms: C12_15  and  O4_16
REMARK   13  A    between atoms: O4_16  and  C13_17
REMARK   14  A    between atoms: C14_22  and  C15_24
REMARK   15  A    between atoms: C16_27  and  C17_29
REMARK   16  A    between atoms: O11_30  and  C18_31
REMARK   17  A    between atoms: C19_32  and  O14_43
REMARK   18  A    between atoms: C22_35  and  C23_36
REMARK   19  A    between atoms: C23_36  and  O12_37
REMARK   20  A    between atoms: N4_41  and  C26_42
REMARK                            x       y       z     vdW  Elec       q    Type
REMARK                         _______ _______ _______ _____ _____    ______ ____
ROOT
ATOM      1  C1  UNK A   1      -2.994  49.275  65.538  0.00  0.00    +0.000 C 
ATOM      2  C2  UNK A   1      -1.737  49.414  64.677  0.00  0.00    +0.000 C 
ATOM      3  C3  UNK A   1      -1.875  50.655  63.788  0.00  0.00    +0.000 C 
ATOM      4  C4  UNK A   1      -3.192  50.557  63.009  0.00  0.00    +0.000 C 
ATOM      5  C5  UNK A   1      -4.339  50.332  63.997  0.00  0.00    +0.000 C 
ATOM      6  O2  UNK A   1      -4.137  49.108  64.701  0.00  0.00    +0.000 OA
ENDROOT
BRANCH   2   7
ATOM      7  N2  UNK A   1      -0.563  49.556  65.542  0.00  0.00    +0.000 N 
ATOM      8  C16 UNK A   1       0.429  48.646  65.486  0.00  0.00    +0.000 C 
ATOM      9  O10 UNK A   1       0.350  47.709  64.720  0.00  0.00    +0.000 OA
ATOM     10  C17 UNK A   1       1.636  48.792  66.377  0.00  0.00    +0.000 C 
ATOM     11  HN1 UNK A   1      -0.499  50.336  66.180  0.00  0.00    +0.000 HD
ENDBRANCH   2   7
BRANCH   3  12
ATOM     12  O9  UNK A   1      -1.883  51.830  64.603  0.00  0.00    +0.000 OA
ATOM     13  HO5 UNK A   1      -1.330  52.502  64.200  0.00  0.00    +0.000 HD
ENDBRANCH   3  12
BRANCH   1  14
ATOM     14  O11 UNK A   1      -2.862  48.136  66.391  0.00  0.00    +0.000 OA
BRANCH  14  15
ATOM     15  C18 UNK A   1      -3.357  48.522  67.675  0.00  0.00    +0.000 C 
ATOM     16  C19 UNK A   1      -2.204  48.570  68.686  0.00  0.00    +0.000 C 
ATOM     17  C20 UNK A   1      -2.123  50.002  69.226  0.00  0.00    +0.000 C 
ATOM     18  C21 UNK A   1      -3.479  50.673  68.866  0.00  0.00    +0.000 C 
ATOM     19  C22 UNK A   1      -3.959  49.933  67.600  0.00  0.00    +0.000 C 
ATOM     20  O13 UNK A   1      -3.028  51.990  68.478  0.00  0.00    +0.000 OA
ATOM     21  C24 UNK A   1      -1.742  51.868  68.053  0.00  0.00    +0.000 C 
ATOM     22  N3  UNK A   1      -1.158  50.789  68.439  0.00  0.00    +0.000 NA
ATOM     23  N4  UNK A   1      -1.159  52.754  67.337  0.00  0.00    +0.000 N 
ATOM     24  C26 UNK A   1       0.229  52.556  66.914  0.00  0.00    +0.000 C 
ATOM     25  HN2 UNK A   1      -1.656  53.589  67.063  0.00  0.00    +0.000 HD
BRANCH  16  26
ATOM     26  O14 UNK A   1      -2.459  47.660  69.756  0.00  0.00    +0.000 OA
ATOM     27  HO  UNK A   1      -1.970  47.935  70.536  0.00  0.00    +0.000 HD
ENDBRANCH  16  26
BRANCH  19  28
ATOM     28  C23 UNK A   1      -5.487  49.860  67.581  0.00  0.00    +0.000 C 
BRANCH  28  29
ATOM     29  O12 UNK A   1      -5.897  48.577  67.104  0.00  0.00    +0.000 OA
ATOM     30  HO3 UNK A   1      -6.707  48.668  66.597  0.00  0.00    +0.000 HD
ENDBRANCH  28  29
ENDBRANCH  19  28
ENDBRANCH  14  15
ENDBRANCH   1  14
BRANCH   4  31
ATOM     31  O3  UNK A   1      -3.412  51.771  62.288  0.00  0.00    +0.000 OA
BRANCH  31  32
ATOM     32  C7  UNK A   1      -3.100  51.500  60.920  0.00  0.00    +0.000 C 
ATOM     33  C8  UNK A   1      -1.650  51.898  60.640  0.00  0.00    +0.000 C 
ATOM     34  C9  UNK A   1      -1.336  51.634  59.163  0.00  0.00    +0.000 C 
ATOM     35  C10 UNK A   1      -1.687  50.177  58.839  0.00  0.00    +0.000 C 
ATOM     36  C11 UNK A   1      -3.134  49.910  59.255  0.00  0.00    +0.000 C 
ATOM     37  O5  UNK A   1      -3.277  50.108  60.661  0.00  0.00    +0.000 OA
BRANCH  33  38
ATOM     38  N1  UNK A   1      -1.466  53.320  60.935  0.00  0.00    +0.000 N 
ATOM     39  C14 UNK A   1      -0.346  53.740  61.558  0.00  0.00    +0.000 C 
ATOM     40  O8  UNK A   1       0.510  52.940  61.871  0.00  0.00    +0.000 OA
ATOM     41  C15 UNK A   1      -0.157  55.204  61.862  0.00  0.00    +0.000 C 
ATOM     42  HN  UNK A   1      -2.178  53.987  60.674  0.00  0.00    +0.000 HD
ENDBRANCH  33  38
BRANCH  34  43
ATOM     43  O7  UNK A   1      -2.112  52.511  58.344  0.00  0.00    +0.000 OA
ATOM     44  HO2 UNK A   1      -1.581  52.811  57.602  0.00  0.00    +0.000 HD
ENDBRANCH  34  43
BRANCH  35  45
ATOM     45  O6  UNK A   1      -1.541  49.952  57.435  0.00  0.00    +0.000 OA
ATOM     46  HO4 UNK A   1      -1.462  50.795  56.982  0.00  0.00    +0.000 HD
ENDBRANCH  35  45
BRANCH  36  47
ATOM     47  C12 UNK A   1      -3.505  48.467  58.906  0.00  0.00    +0.000 C 
BRANCH  47  48
ATOM     48  O4  UNK A   1      -2.315  47.682  58.803  0.00  0.00    +0.000 OA
ATOM     49  C13 UNK A   1      -2.719  46.372  58.396  0.00  0.00    +0.000 C 
ENDBRANCH  47  48
ENDBRANCH  36  47
ENDBRANCH  31  32
ENDBRANCH   4  31
BRANCH   5  50
ATOM     50  C6  UNK A   1      -5.663  50.264  63.232  0.00  0.00    +0.000 C 
BRANCH  50  51
ATOM     51  O1  UNK A   1      -5.541  49.342  62.147  0.00  0.00    +0.000 OA
ATOM     52  HO1 UNK A   1      -4.833  48.720  62.333  0.00  0.00    +0.000 HD
ENDBRANCH  50  51
ENDBRANCH   5  50
TORSDOF 16
ENDMDL
