MODEL 1
REMARK VINA RESULT:      -8.7      0.000      0.000
REMARK  Name = 3fy1
REMARK  21 active torsions:
REMARK  status: ('A' for Active; 'I' for Inactive)
REMARK    1  A    between atoms: C1_1  and  O4_71
REMARK    2  A    between atoms: C2_2  and  N2_9
REMARK    3  A    between atoms: C3_3  and  O3_10
REMARK    4  A    between atoms: C4_4  and  O4_11
REMARK    5  A    between atoms: C5_5  and  C6_6
REMARK    6  A    between atoms: C6_6  and  O6_13
REMARK    7  A    between atoms: C7_7  and  C8_8
REMARK    8  A    between atoms: O4_11  and  C1_28
REMARK    9  A    between atoms: C2_29  and  N2_36
REMARK   10  A    between atoms: C3_30  and  O3_37
REMARK   11  A    between atoms: C4_31  and  O4_38
REMARK   12  A    between atoms: C5_32  and  C6_33
REMARK   13  A    between atoms: C6_33  and  O6_40
REMARK   14  A    between atoms: C7_34  and  C8_35
REMARK   15  A    between atoms: O6_40  and  C9_41
REMARK   16  A    between atoms: C3_61  and  O3_70
REMARK   17  A    between atoms: C4_62  and  O4_71
REMARK   18  A    between atoms: C5_63  and  C6_64
REMARK   19  A    between atoms: C6_64  and  O6_72
REMARK   20  A    between atoms: C8_66  and  N7_69
REMARK   21  A    between atoms: C9_67  and  N7_69
REMARK                            x       y       z     vdW  Elec       q    Type
REMARK                         _______ _______ _______ _____ _____    ______ ____
ROOT
ATOM      1  C1  NAA A   1      -0.316  49.687  66.758  0.00  0.00    +0.273 C 
ATOM      2  C2  NAA A   1      -0.508  51.173  66.330  0.00  0.00    +0.161 C 
ATOM      3  C3  NAA A   1      -0.762  51.255  64.802  0.00  0.00    +0.171 C 
ATOM      4  C4  NAA A   1       0.410  50.436  64.072  0.00  0.00    +0.183 C 
ATOM      5  C5  NAA A   1       0.427  48.957  64.590  0.00  0.00    +0.178 C 
ATOM      6  O5  NAA A   1       0.694  49.022  65.989  0.00  0.00    -0.342 OA
ENDROOT
BRANCH   2   9
ATOM      7  C7  NAA A   1      -1.542  52.591  68.039  0.00  0.00    +0.209 C 
ATOM      8  C8  NAA A   1      -2.792  52.948  68.832  0.00  0.00    +0.111 C 
ATOM      9  N2  NAA A   1      -1.664  51.625  67.153  0.00  0.00    -0.305 N 
ATOM     10  O7  NAA A   1      -0.476  53.182  68.225  0.00  0.00    -0.278 OA
ATOM     11  HN2 NAA A   1      -2.563  51.182  67.027  0.00  0.00    +0.150 HD
ENDBRANCH   2   9
BRANCH   3  12
ATOM     12  O3  NAA A   1      -2.040  50.704  64.484  0.00  0.00    -0.388 OA
ATOM     13  HO3 NAA A   1      -2.629  50.805  65.235  0.00  0.00    +0.211 HD
ENDBRANCH   3  12
BRANCH   4  14
ATOM     14  O4  NAA A   1       0.296  50.414  62.662  0.00  0.00    -0.342 OA
BRANCH  14  15
ATOM     15  C1  NA1 A   2       0.940  51.470  61.983  0.00  0.00    +0.274 C 
ATOM     16  C2  NA1 A   2       1.651  50.889  60.728  0.00  0.00    +0.161 C 
ATOM     17  C3  NA1 A   2       1.950  51.927  59.651  0.00  0.00    +0.171 C 
ATOM     18  C4  NA1 A   2       0.683  52.776  59.396  0.00  0.00    +0.176 C 
ATOM     19  C5  NA1 A   2       0.225  53.449  60.762  0.00  0.00    +0.178 C 
ATOM     20  O5  NA1 A   2      -0.181  52.314  61.599  0.00  0.00    -0.342 OA
BRANCH  16  23
ATOM     21  C7  NA1 A   2       3.246  48.994  60.878  0.00  0.00    +0.209 C 
ATOM     22  C8  NA1 A   2       4.574  48.610  61.527  0.00  0.00    +0.111 C 
ATOM     23  N2  NA1 A   2       2.864  50.216  61.178  0.00  0.00    -0.305 N 
ATOM     24  O7  NA1 A   2       2.622  48.232  60.173  0.00  0.00    -0.278 OA
ATOM     25  HN2 NA1 A   2       3.475  50.744  61.784  0.00  0.00    +0.150 HD
ENDBRANCH  16  23
BRANCH  18  26
ATOM     26  O4  NA1 A   2       1.003  53.728  58.416  0.00  0.00    -0.388 OA
ATOM     27  HO4 NA1 A   2       0.737  54.599  58.717  0.00  0.00    +0.211 HD
ENDBRANCH  18  26
BRANCH  17  28
ATOM     28  O3  NA1 A   2       3.015  52.749  60.094  0.00  0.00    -0.388 OA
ATOM     29  HO3 NA1 A   2       3.851  52.304  59.935  0.00  0.00    +0.211 HD
ENDBRANCH  17  28
BRANCH  19  30
ATOM     30  C6  NA1 A   2      -0.997  54.418  60.606  0.00  0.00    +0.194 C 
BRANCH  30  31
ATOM     31  O6  NA1 A   2      -0.624  55.737  60.130  0.00  0.00    -0.382 OA
ATOM     32  C9  NA1 A   2       0.441  56.318  60.719  0.00  0.00    +0.195 C 
ENDBRANCH  30  31
ENDBRANCH  19  30
ENDBRANCH  14  15
ENDBRANCH   4  14
BRANCH   1  33
ATOM     33  O4  AMI A   3       0.084  49.696  68.110  0.00  0.00    -0.344 OA
BRANCH  33  37
ATOM     34  C1  AMI A   3       0.530  47.494  70.982  0.00  0.00    +0.164 C 
ATOM     35  C2  AMI A   3       1.253  46.671  69.896  0.00  0.00    +0.171 C 
ATOM     36  C3  AMI A   3       1.347  47.616  68.698  0.00  0.00    +0.171 C 
ATOM     37  C4  AMI A   3       0.065  48.462  68.807  0.00  0.00    +0.160 C 
ATOM     38  C5  AMI A   3       0.155  48.810  70.291  0.00  0.00    +0.078 C 
ATOM     39  C7  AMI A   3       2.648  46.958  71.654  0.00  0.00    +0.229 C 
ATOM     40  C8  AMI A   3       5.021  46.289  71.994  0.00  0.00    +0.133 C 
ATOM     41  C9  AMI A   3       3.756  47.522  73.781  0.00  0.00    +0.133 C 
ATOM     42  N2  AMI A   3       2.547  46.406  70.440  0.00  0.00    -0.240 NA
ATOM     43  N7  AMI A   3       3.787  47.009  72.387  0.00  0.00    -0.302 N 
ATOM     44  O7  AMI A   3       1.523  47.660  72.024  0.00  0.00    -0.311 OA
BRANCH  36  45
ATOM     45  O3  AMI A   3       1.344  46.803  67.524  0.00  0.00    -0.388 OA
ATOM     46  HO3 AMI A   3       2.174  46.916  67.055  0.00  0.00    +0.211 HD
ENDBRANCH  36  45
BRANCH  38  47
ATOM     47  C6  AMI A   3      -1.165  49.441  70.882  0.00  0.00    +0.165 C 
BRANCH  47  48
ATOM     48  O6  AMI A   3      -2.277  49.200  69.981  0.00  0.00    -0.396 OA
ATOM     49  HO6 AMI A   3      -3.015  48.832  70.474  0.00  0.00    +0.210 HD
ENDBRANCH  47  48
ENDBRANCH  38  47
ENDBRANCH  33  37
ENDBRANCH   1  33
BRANCH   5  50
ATOM     50  C6  NAA A   1       1.534  48.115  63.970  0.00  0.00    +0.191 C 
BRANCH  50  51
ATOM     51  O6  NAA A   1       1.467  46.789  64.564  0.00  0.00    -0.394 OA
ATOM     52  HO6 NAA A   1       2.031  46.188  64.072  0.00  0.00    +0.210 HD
ENDBRANCH  50  51
ENDBRANCH   5  50
TORSDOF 16
ENDMDL
MODEL 2
REMARK VINA RESULT:      -8.2      2.995      9.096
REMARK  Name = 3fy1
REMARK  21 active torsions:
REMARK  status: ('A' for Active; 'I' for Inactive)
REMARK    1  A    between atoms: C1_1  and  O4_71
REMARK    2  A    between atoms: C2_2  and  N2_9
REMARK    3  A    between atoms: C3_3  and  O3_10
REMARK    4  A    between atoms: C4_4  and  O4_11
REMARK    5  A    between atoms: C5_5  and  C6_6
REMARK    6  A    between atoms: C6_6  and  O6_13
REMARK    7  A    between atoms: C7_7  and  C8_8
REMARK    8  A    between atoms: O4_11  and  C1_28
REMARK    9  A    between atoms: C2_29  and  N2_36
REMARK   10  A    between atoms: C3_30  and  O3_37
REMARK   11  A    between atoms: C4_31  and  O4_38
REMARK   12  A    between atoms: C5_32  and  C6_33
REMARK   13  A    between atoms: C6_33  and  O6_40
REMARK   14  A    between atoms: C7_34  and  C8_35
REMARK   15  A    between atoms: O6_40  and  C9_41
REMARK   16  A    between atoms: C3_61  and  O3_70
REMARK   17  A    between atoms: C4_62  and  O4_71
REMARK   18  A    between atoms: C5_63  and  C6_64
REMARK   19  A    between atoms: C6_64  and  O6_72
REMARK   20  A    between atoms: C8_66  and  N7_69
REMARK   21  A    between atoms: C9_67  and  N7_69
REMARK                            x       y       z     vdW  Elec       q    Type
REMARK                         _______ _______ _______ _____ _____    ______ ____
ROOT
ATOM      1  C1  NAA A   1       1.639  49.971  63.322  0.00  0.00    +0.273 C 
ATOM      2  C2  NAA A   1       0.223  50.526  62.983  0.00  0.00    +0.161 C 
ATOM      3  C3  NAA A   1      -0.456  51.064  64.269  0.00  0.00    +0.171 C 
ATOM      4  C4  NAA A   1      -0.377  49.907  65.379  0.00  0.00    +0.183 C 
ATOM      5  C5  NAA A   1       1.118  49.505  65.623  0.00  0.00    +0.178 C 
ATOM      6  O5  NAA A   1       1.611  49.006  64.381  0.00  0.00    -0.342 OA
ENDROOT
BRANCH   2   9
ATOM      7  C7  NAA A   1      -0.182  51.641  60.840  0.00  0.00    +0.209 C 
ATOM      8  C8  NAA A   1       0.205  52.752  59.872  0.00  0.00    +0.111 C 
ATOM      9  N2  NAA A   1       0.496  51.579  61.966  0.00  0.00    -0.305 N 
ATOM     10  O7  NAA A   1      -1.086  50.846  60.572  0.00  0.00    -0.278 OA
ATOM     11  HN2 NAA A   1       1.218  52.263  62.146  0.00  0.00    +0.150 HD
ENDBRANCH   2   9
BRANCH   3  12
ATOM     12  O3  NAA A   1       0.207  52.244  64.721  0.00  0.00    -0.388 OA
ATOM     13  HO3 NAA A   1       0.074  52.346  65.667  0.00  0.00    +0.211 HD
ENDBRANCH   3  12
BRANCH   4  14
ATOM     14  O4  NAA A   1      -0.952  50.268  66.621  0.00  0.00    -0.342 OA
BRANCH  14  15
ATOM     15  C1  NA1 A   2      -2.033  49.468  67.046  0.00  0.00    +0.274 C 
ATOM     16  C2  NA1 A   2      -2.186  49.624  68.585  0.00  0.00    +0.161 C 
ATOM     17  C3  NA1 A   2      -3.568  49.247  69.111  0.00  0.00    +0.171 C 
ATOM     18  C4  NA1 A   2      -4.648  49.926  68.237  0.00  0.00    +0.176 C 
ATOM     19  C5  NA1 A   2      -4.445  49.486  66.722  0.00  0.00    +0.178 C 
ATOM     20  O5  NA1 A   2      -3.155  50.079  66.350  0.00  0.00    -0.342 OA
BRANCH  16  23
ATOM     21  C7  NA1 A   2      -0.625  49.015  70.415  0.00  0.00    +0.209 C 
ATOM     22  C8  NA1 A   2       0.463  47.999  70.756  0.00  0.00    +0.111 C 
ATOM     23  N2  NA1 A   2      -1.137  48.834  69.217  0.00  0.00    -0.305 N 
ATOM     24  O7  NA1 A   2      -0.956  49.893  71.178  0.00  0.00    -0.278 OA
ATOM     25  HN2 NA1 A   2      -0.764  48.065  68.678  0.00  0.00    +0.150 HD
ENDBRANCH  16  23
BRANCH  18  26
ATOM     26  O4  NA1 A   2      -5.900  49.542  68.738  0.00  0.00    -0.388 OA
ATOM     27  HO4 NA1 A   2      -6.252  50.241  69.294  0.00  0.00    +0.211 HD
ENDBRANCH  18  26
BRANCH  17  28
ATOM     28  O3  NA1 A   2      -3.705  47.838  69.060  0.00  0.00    -0.388 OA
ATOM     29  HO3 NA1 A   2      -4.620  47.612  68.875  0.00  0.00    +0.211 HD
ENDBRANCH  17  28
BRANCH  19  30
ATOM     30  C6  NA1 A   2      -5.548  50.035  65.755  0.00  0.00    +0.194 C 
BRANCH  30  31
ATOM     31  O6  NA1 A   2      -6.866  49.495  66.025  0.00  0.00    -0.382 OA
ATOM     32  C9  NA1 A   2      -7.903  50.355  65.959  0.00  0.00    +0.195 C 
ENDBRANCH  30  31
ENDBRANCH  19  30
ENDBRANCH  14  15
ENDBRANCH   4  14
BRANCH   1  33
ATOM     33  O4  AMI A   3       2.126  49.343  62.157  0.00  0.00    -0.344 OA
BRANCH  33  37
ATOM     34  C1  AMI A   3       5.238  47.978  60.837  0.00  0.00    +0.164 C 
ATOM     35  C2  AMI A   3       4.813  46.826  61.772  0.00  0.00    +0.171 C 
ATOM     36  C3  AMI A   3       3.387  47.181  62.193  0.00  0.00    +0.171 C 
ATOM     37  C4  AMI A   3       3.396  48.720  62.230  0.00  0.00    +0.160 C 
ATOM     38  C5  AMI A   3       4.071  48.970  60.883  0.00  0.00    +0.078 C 
ATOM     39  C7  AMI A   3       5.190  45.994  59.702  0.00  0.00    +0.229 C 
ATOM     40  C8  AMI A   3       4.919  43.699  58.780  0.00  0.00    +0.133 C 
ATOM     41  C9  AMI A   3       5.728  45.586  57.333  0.00  0.00    +0.133 C 
ATOM     42  N2  AMI A   3       4.826  45.661  60.945  0.00  0.00    -0.240 NA
ATOM     43  N7  AMI A   3       5.174  45.152  58.640  0.00  0.00    -0.302 N 
ATOM     44  O7  AMI A   3       5.399  47.346  59.544  0.00  0.00    -0.311 OA
BRANCH  36  45
ATOM     45  O3  AMI A   3       3.185  46.623  63.491  0.00  0.00    -0.388 OA
ATOM     46  HO3 AMI A   3       3.973  46.148  63.762  0.00  0.00    +0.211 HD
ENDBRANCH  36  45
BRANCH  38  47
ATOM     47  C6  AMI A   3       4.544  50.461  60.670  0.00  0.00    +0.165 C 
BRANCH  47  48
ATOM     48  O6  AMI A   3       3.393  51.343  60.615  0.00  0.00    -0.396 OA
ATOM     49  HO6 AMI A   3       2.590  50.831  60.741  0.00  0.00    +0.210 HD
ENDBRANCH  47  48
ENDBRANCH  38  47
ENDBRANCH  33  37
ENDBRANCH   1  33
BRANCH   5  50
ATOM     50  C6  NAA A   1       1.282  48.386  66.643  0.00  0.00    +0.191 C 
BRANCH  50  51
ATOM     51  O6  NAA A   1       1.531  47.154  65.910  0.00  0.00    -0.394 OA
ATOM     52  HO6 NAA A   1       0.728  46.882  65.460  0.00  0.00    +0.210 HD
ENDBRANCH  50  51
ENDBRANCH   5  50
TORSDOF 16
ENDMDL
MODEL 3
REMARK VINA RESULT:      -7.7      3.253      9.063
REMARK  Name = 3fy1
REMARK  21 active torsions:
REMARK  status: ('A' for Active; 'I' for Inactive)
REMARK    1  A    between atoms: C1_1  and  O4_71
REMARK    2  A    between atoms: C2_2  and  N2_9
REMARK    3  A    between atoms: C3_3  and  O3_10
REMARK    4  A    between atoms: C4_4  and  O4_11
REMARK    5  A    between atoms: C5_5  and  C6_6
REMARK    6  A    between atoms: C6_6  and  O6_13
REMARK    7  A    between atoms: C7_7  and  C8_8
REMARK    8  A    between atoms: O4_11  and  C1_28
REMARK    9  A    between atoms: C2_29  and  N2_36
REMARK   10  A    between atoms: C3_30  and  O3_37
REMARK   11  A    between atoms: C4_31  and  O4_38
REMARK   12  A    between atoms: C5_32  and  C6_33
REMARK   13  A    between atoms: C6_33  and  O6_40
REMARK   14  A    between atoms: C7_34  and  C8_35
REMARK   15  A    between atoms: O6_40  and  C9_41
REMARK   16  A    between atoms: C3_61  and  O3_70
REMARK   17  A    between atoms: C4_62  and  O4_71
REMARK   18  A    between atoms: C5_63  and  C6_64
REMARK   19  A    between atoms: C6_64  and  O6_72
REMARK   20  A    between atoms: C8_66  and  N7_69
REMARK   21  A    between atoms: C9_67  and  N7_69
REMARK                            x       y       z     vdW  Elec       q    Type
REMARK                         _______ _______ _______ _____ _____    ______ ____
ROOT
ATOM      1  C1  NAA A   1      -1.805  50.650  64.021  0.00  0.00    +0.273 C 
ATOM      2  C2  NAA A   1      -2.742  49.407  64.060  0.00  0.00    +0.161 C 
ATOM      3  C3  NAA A   1      -3.691  49.497  65.284  0.00  0.00    +0.171 C 
ATOM      4  C4  NAA A   1      -2.783  49.762  66.581  0.00  0.00    +0.183 C 
ATOM      5  C5  NAA A   1      -1.945  51.072  66.384  0.00  0.00    +0.178 C 
ATOM      6  O5  NAA A   1      -1.104  50.847  65.254  0.00  0.00    -0.342 OA
ENDROOT
BRANCH   2   9
ATOM      7  C7  NAA A   1      -4.157  48.444  62.306  0.00  0.00    +0.209 C 
ATOM      8  C8  NAA A   1      -4.816  48.616  60.944  0.00  0.00    +0.111 C 
ATOM      9  N2  NAA A   1      -3.451  49.462  62.751  0.00  0.00    -0.305 N 
ATOM     10  O7  NAA A   1      -4.286  47.401  62.952  0.00  0.00    -0.278 OA
ATOM     11  HN2 NAA A   1      -3.388  50.301  62.191  0.00  0.00    +0.150 HD
ENDBRANCH   2   9
BRANCH   3  12
ATOM     12  O3  NAA A   1      -4.634  50.553  65.101  0.00  0.00    -0.388 OA
ATOM     13  HO3 NAA A   1      -4.748  51.028  65.927  0.00  0.00    +0.211 HD
ENDBRANCH   3  12
BRANCH   4  14
ATOM     14  O4  NAA A   1      -3.525  49.882  67.780  0.00  0.00    -0.342 OA
BRANCH  14  15
ATOM     15  C1  NA1 A   2      -3.455  48.776  68.652  0.00  0.00    +0.274 C 
ATOM     16  C2  NA1 A   2      -3.894  47.505  67.872  0.00  0.00    +0.161 C 
ATOM     17  C3  NA1 A   2      -3.406  46.199  68.492  0.00  0.00    +0.171 C 
ATOM     18  C4  NA1 A   2      -1.899  46.322  68.819  0.00  0.00    +0.176 C 
ATOM     19  C5  NA1 A   2      -1.677  47.564  69.788  0.00  0.00    +0.178 C 
ATOM     20  O5  NA1 A   2      -2.035  48.725  68.966  0.00  0.00    -0.342 OA
BRANCH  16  23
ATOM     21  C7  NA1 A   2      -6.076  47.010  66.799  0.00  0.00    +0.209 C 
ATOM     22  C8  NA1 A   2      -7.574  47.232  66.998  0.00  0.00    +0.111 C 
ATOM     23  N2  NA1 A   2      -5.348  47.535  67.760  0.00  0.00    -0.305 N 
ATOM     24  O7  NA1 A   2      -5.629  46.419  65.842  0.00  0.00    -0.278 OA
ATOM     25  HN2 NA1 A   2      -5.848  48.009  68.498  0.00  0.00    +0.150 HD
ENDBRANCH  16  23
BRANCH  18  26
ATOM     26  O4  NA1 A   2      -1.493  45.114  69.402  0.00  0.00    -0.388 OA
ATOM     27  HO4 NA1 A   2      -0.826  44.699  68.849  0.00  0.00    +0.211 HD
ENDBRANCH  18  26
BRANCH  17  28
ATOM     28  O3  NA1 A   2      -4.148  45.950  69.673  0.00  0.00    -0.388 OA
ATOM     29  HO3 NA1 A   2      -5.041  46.285  69.567  0.00  0.00    +0.211 HD
ENDBRANCH  17  28
BRANCH  19  30
ATOM     30  C6  NA1 A   2      -0.194  47.727  70.268  0.00  0.00    +0.194 C 
BRANCH  30  31
ATOM     31  O6  NA1 A   2       0.724  46.818  69.610  0.00  0.00    -0.382 OA
ATOM     32  C9  NA1 A   2       1.573  47.354  68.709  0.00  0.00    +0.195 C 
ENDBRANCH  30  31
ENDBRANCH  19  30
ENDBRANCH  14  15
ENDBRANCH   4  14
BRANCH   1  33
ATOM     33  O4  AMI A   3      -0.860  50.422  62.999  0.00  0.00    -0.344 OA
BRANCH  33  37
ATOM     34  C1  AMI A   3       2.729  50.128  62.430  0.00  0.00    +0.164 C 
ATOM     35  C2  AMI A   3       2.555  49.120  63.585  0.00  0.00    +0.171 C 
ATOM     36  C3  AMI A   3       1.042  48.974  63.741  0.00  0.00    +0.171 C 
ATOM     37  C4  AMI A   3       0.506  50.368  63.370  0.00  0.00    +0.160 C 
ATOM     38  C5  AMI A   3       1.305  50.578  62.086  0.00  0.00    +0.078 C 
ATOM     39  C7  AMI A   3       3.602  48.093  61.862  0.00  0.00    +0.229 C 
ATOM     40  C8  AMI A   3       4.337  45.735  61.556  0.00  0.00    +0.133 C 
ATOM     41  C9  AMI A   3       4.709  47.449  59.757  0.00  0.00    +0.133 C 
ATOM     42  N2  AMI A   3       3.138  47.908  63.102  0.00  0.00    -0.240 NA
ATOM     43  N7  AMI A   3       4.092  47.112  61.065  0.00  0.00    -0.302 N 
ATOM     44  O7  AMI A   3       3.354  49.357  61.375  0.00  0.00    -0.311 OA
BRANCH  36  45
ATOM     45  O3  AMI A   3       0.792  48.659  65.111  0.00  0.00    -0.388 OA
ATOM     46  HO3 AMI A   3       1.397  49.154  65.669  0.00  0.00    +0.211 HD
ENDBRANCH  36  45
BRANCH  38  47
ATOM     47  C6  AMI A   3       1.261  52.058  61.539  0.00  0.00    +0.165 C 
BRANCH  47  48
ATOM     48  O6  AMI A   3       0.462  52.890  62.420  0.00  0.00    -0.396 OA
ATOM     49  HO6 AMI A   3       0.676  53.814  62.270  0.00  0.00    +0.210 HD
ENDBRANCH  47  48
ENDBRANCH  38  47
ENDBRANCH  33  37
ENDBRANCH   1  33
BRANCH   5  50
ATOM     50  C6  NAA A   1      -1.027  51.382  67.560  0.00  0.00    +0.191 C 
BRANCH  50  51
ATOM     51  O6  NAA A   1      -0.028  50.327  67.631  0.00  0.00    -0.394 OA
ATOM     52  HO6 NAA A   1      -0.173  49.801  68.422  0.00  0.00    +0.210 HD
ENDBRANCH  50  51
ENDBRANCH   5  50
TORSDOF 16
ENDMDL
MODEL 4
REMARK VINA RESULT:      -7.6      2.237      3.509
REMARK  Name = 3fy1
REMARK  21 active torsions:
REMARK  status: ('A' for Active; 'I' for Inactive)
REMARK    1  A    between atoms: C1_1  and  O4_71
REMARK    2  A    between atoms: C2_2  and  N2_9
REMARK    3  A    between atoms: C3_3  and  O3_10
REMARK    4  A    between atoms: C4_4  and  O4_11
REMARK    5  A    between atoms: C5_5  and  C6_6
REMARK    6  A    between atoms: C6_6  and  O6_13
REMARK    7  A    between atoms: C7_7  and  C8_8
REMARK    8  A    between atoms: O4_11  and  C1_28
REMARK    9  A    between atoms: C2_29  and  N2_36
REMARK   10  A    between atoms: C3_30  and  O3_37
REMARK   11  A    between atoms: C4_31  and  O4_38
REMARK   12  A    between atoms: C5_32  and  C6_33
REMARK   13  A    between atoms: C6_33  and  O6_40
REMARK   14  A    between atoms: C7_34  and  C8_35
REMARK   15  A    between atoms: O6_40  and  C9_41
REMARK   16  A    between atoms: C3_61  and  O3_70
REMARK   17  A    between atoms: C4_62  and  O4_71
REMARK   18  A    between atoms: C5_63  and  C6_64
REMARK   19  A    between atoms: C6_64  and  O6_72
REMARK   20  A    between atoms: C8_66  and  N7_69
REMARK   21  A    between atoms: C9_67  and  N7_69
REMARK                            x       y       z     vdW  Elec       q    Type
REMARK                         _______ _______ _______ _____ _____    ______ ____
ROOT
ATOM      1  C1  NAA A   1      -0.251  49.949  66.666  0.00  0.00    +0.273 C 
ATOM      2  C2  NAA A   1      -0.485  51.463  66.382  0.00  0.00    +0.161 C 
ATOM      3  C3  NAA A   1      -0.817  51.675  64.882  0.00  0.00    +0.171 C 
ATOM      4  C4  NAA A   1       0.326  50.945  64.024  0.00  0.00    +0.183 C 
ATOM      5  C5  NAA A   1       0.390  49.426  64.408  0.00  0.00    +0.178 C 
ATOM      6  O5  NAA A   1       0.727  49.372  65.792  0.00  0.00    -0.342 OA
ENDROOT
BRANCH   2   9
ATOM      7  C7  NAA A   1      -1.512  52.833  68.134  0.00  0.00    +0.209 C 
ATOM      8  C8  NAA A   1      -2.716  53.085  69.033  0.00  0.00    +0.111 C 
ATOM      9  N2  NAA A   1      -1.603  51.820  67.298  0.00  0.00    -0.305 N 
ATOM     10  O7  NAA A   1      -0.509  53.549  68.193  0.00  0.00    -0.278 OA
ATOM     11  HN2 NAA A   1      -2.452  51.273  67.278  0.00  0.00    +0.150 HD
ENDBRANCH   2   9
BRANCH   3  12
ATOM     12  O3  NAA A   1      -2.102  51.131  64.580  0.00  0.00    -0.388 OA
ATOM     13  HO3 NAA A   1      -2.603  51.019  65.392  0.00  0.00    +0.211 HD
ENDBRANCH   3  12
BRANCH   4  14
ATOM     14  O4  NAA A   1       0.140  51.046  62.626  0.00  0.00    -0.342 OA
BRANCH  14  15
ATOM     15  C1  NA1 A   2      -1.156  51.415  62.209  0.00  0.00    +0.274 C 
ATOM     16  C2  NA1 A   2      -1.028  52.356  60.977  0.00  0.00    +0.161 C 
ATOM     17  C3  NA1 A   2      -2.291  52.431  60.124  0.00  0.00    +0.171 C 
ATOM     18  C4  NA1 A   2      -2.806  50.999  59.849  0.00  0.00    +0.176 C 
ATOM     19  C5  NA1 A   2      -3.066  50.264  61.235  0.00  0.00    +0.178 C 
ATOM     20  O5  NA1 A   2      -1.729  50.134  61.825  0.00  0.00    -0.342 OA
BRANCH  16  23
ATOM     21  C7  NA1 A   2      -0.013  54.611  60.783  0.00  0.00    +0.209 C 
ATOM     22  C8  NA1 A   2       0.254  55.867  61.609  0.00  0.00    +0.111 C 
ATOM     23  N2  NA1 A   2      -0.630  53.671  61.464  0.00  0.00    -0.305 N 
ATOM     24  O7  NA1 A   2       0.327  54.510  59.625  0.00  0.00    -0.278 OA
ATOM     25  HN2 NA1 A   2      -0.850  53.882  62.427  0.00  0.00    +0.150 HD
ENDBRANCH  16  23
BRANCH  18  26
ATOM     26  O4  NA1 A   2      -3.974  51.110  59.080  0.00  0.00    -0.388 OA
ATOM     27  HO4 NA1 A   2      -4.458  51.896  59.345  0.00  0.00    +0.211 HD
ENDBRANCH  18  26
BRANCH  17  28
ATOM     28  O3  NA1 A   2      -3.268  53.182  60.822  0.00  0.00    -0.388 OA
ATOM     29  HO3 NA1 A   2      -3.526  53.942  60.294  0.00  0.00    +0.211 HD
ENDBRANCH  17  28
BRANCH  19  30
ATOM     30  C6  NA1 A   2      -3.687  48.834  61.082  0.00  0.00    +0.194 C 
BRANCH  30  31
ATOM     31  O6  NA1 A   2      -3.282  48.163  59.861  0.00  0.00    -0.382 OA
ATOM     32  C9  NA1 A   2      -4.206  47.389  59.256  0.00  0.00    +0.195 C 
ENDBRANCH  30  31
ENDBRANCH  19  30
ENDBRANCH  14  15
ENDBRANCH   4  14
BRANCH   1  33
ATOM     33  O4  AMI A   3       0.217  49.845  67.992  0.00  0.00    -0.344 OA
BRANCH  33  37
ATOM     34  C1  AMI A   3       0.575  47.450  70.718  0.00  0.00    +0.164 C 
ATOM     35  C2  AMI A   3       1.373  46.725  69.615  0.00  0.00    +0.171 C 
ATOM     36  C3  AMI A   3       1.503  47.757  68.495  0.00  0.00    +0.171 C 
ATOM     37  C4  AMI A   3       0.196  48.564  68.597  0.00  0.00    +0.160 C 
ATOM     38  C5  AMI A   3       0.202  48.804  70.104  0.00  0.00    +0.078 C 
ATOM     39  C7  AMI A   3       2.670  46.914  71.459  0.00  0.00    +0.229 C 
ATOM     40  C8  AMI A   3       5.040  46.276  71.873  0.00  0.00    +0.133 C 
ATOM     41  C9  AMI A   3       3.654  47.346  73.676  0.00  0.00    +0.133 C 
ATOM     42  N2  AMI A   3       2.645  46.451  70.204  0.00  0.00    -0.240 NA
ATOM     43  N7  AMI A   3       3.769  46.937  72.252  0.00  0.00    -0.302 N 
ATOM     44  O7  AMI A   3       1.509  47.561  71.819  0.00  0.00    -0.311 OA
BRANCH  36  45
ATOM     45  O3  AMI A   3       1.581  47.032  67.267  0.00  0.00    -0.388 OA
ATOM     46  HO3 AMI A   3       0.805  47.220  66.734  0.00  0.00    +0.211 HD
ENDBRANCH  36  45
BRANCH  38  47
ATOM     47  C6  AMI A   3      -1.163  49.361  70.670  0.00  0.00    +0.165 C 
BRANCH  47  48
ATOM     48  O6  AMI A   3      -2.101  49.572  69.583  0.00  0.00    -0.396 OA
ATOM     49  HO6 AMI A   3      -2.722  48.840  69.548  0.00  0.00    +0.210 HD
ENDBRANCH  47  48
ENDBRANCH  38  47
ENDBRANCH  33  37
ENDBRANCH   1  33
BRANCH   5  50
ATOM     50  C6  NAA A   1       1.475  48.662  63.660  0.00  0.00    +0.191 C 
BRANCH  50  51
ATOM     51  O6  NAA A   1       1.513  47.311  64.197  0.00  0.00    -0.394 OA
ATOM     52  HO6 NAA A   1       2.403  47.110  64.496  0.00  0.00    +0.210 HD
ENDBRANCH  50  51
ENDBRANCH   5  50
TORSDOF 16
ENDMDL
MODEL 5
REMARK VINA RESULT:      -7.6      4.733      8.709
REMARK  Name = 3fy1
REMARK  21 active torsions:
REMARK  status: ('A' for Active; 'I' for Inactive)
REMARK    1  A    between atoms: C1_1  and  O4_71
REMARK    2  A    between atoms: C2_2  and  N2_9
REMARK    3  A    between atoms: C3_3  and  O3_10
REMARK    4  A    between atoms: C4_4  and  O4_11
REMARK    5  A    between atoms: C5_5  and  C6_6
REMARK    6  A    between atoms: C6_6  and  O6_13
REMARK    7  A    between atoms: C7_7  and  C8_8
REMARK    8  A    between atoms: O4_11  and  C1_28
REMARK    9  A    between atoms: C2_29  and  N2_36
REMARK   10  A    between atoms: C3_30  and  O3_37
REMARK   11  A    between atoms: C4_31  and  O4_38
REMARK   12  A    between atoms: C5_32  and  C6_33
REMARK   13  A    between atoms: C6_33  and  O6_40
REMARK   14  A    between atoms: C7_34  and  C8_35
REMARK   15  A    between atoms: O6_40  and  C9_41
REMARK   16  A    between atoms: C3_61  and  O3_70
REMARK   17  A    between atoms: C4_62  and  O4_71
REMARK   18  A    between atoms: C5_63  and  C6_64
REMARK   19  A    between atoms: C6_64  and  O6_72
REMARK   20  A    between atoms: C8_66  and  N7_69
REMARK   21  A    between atoms: C9_67  and  N7_69
REMARK                            x       y       z     vdW  Elec       q    Type
REMARK                         _______ _______ _______ _____ _____    ______ ____
ROOT
ATOM      1  C1  NAA A   1      -5.222  49.372  68.232  0.00  0.00    +0.273 C 
ATOM      2  C2  NAA A   1      -4.307  48.240  67.677  0.00  0.00    +0.161 C 
ATOM      3  C3  NAA A   1      -2.868  48.402  68.233  0.00  0.00    +0.171 C 
ATOM      4  C4  NAA A   1      -2.406  49.912  67.947  0.00  0.00    +0.183 C 
ATOM      5  C5  NAA A   1      -3.414  50.911  68.614  0.00  0.00    +0.178 C 
ATOM      6  O5  NAA A   1      -4.680  50.678  68.000  0.00  0.00    -0.342 OA
ENDROOT
BRANCH   2   9
ATOM      7  C7  NAA A   1      -5.537  46.160  67.271  0.00  0.00    +0.209 C 
ATOM      8  C8  NAA A   1      -6.217  44.929  67.858  0.00  0.00    +0.111 C 
ATOM      9  N2  NAA A   1      -4.984  46.992  68.128  0.00  0.00    -0.305 N 
ATOM     10  O7  NAA A   1      -5.511  46.357  66.054  0.00  0.00    -0.278 OA
ATOM     11  HN2 NAA A   1      -5.019  46.778  69.115  0.00  0.00    +0.150 HD
ENDBRANCH   2   9
BRANCH   3  12
ATOM     12  O3  NAA A   1      -2.844  48.121  69.632  0.00  0.00    -0.388 OA
ATOM     13  HO3 NAA A   1      -1.965  48.291  69.979  0.00  0.00    +0.211 HD
ENDBRANCH   3  12
BRANCH   4  14
ATOM     14  O4  NAA A   1      -1.106  50.209  68.418  0.00  0.00    -0.342 OA
BRANCH  14  15
ATOM     15  C1  NA1 A   2      -0.083  50.168  67.447  0.00  0.00    +0.274 C 
ATOM     16  C2  NA1 A   2       0.271  48.680  67.167  0.00  0.00    +0.161 C 
ATOM     17  C3  NA1 A   2       0.966  48.452  65.827  0.00  0.00    +0.171 C 
ATOM     18  C4  NA1 A   2       0.190  49.199  64.718  0.00  0.00    +0.176 C 
ATOM     19  C5  NA1 A   2       0.105  50.743  65.091  0.00  0.00    +0.178 C 
ATOM     20  O5  NA1 A   2      -0.733  50.772  66.295  0.00  0.00    -0.342 OA
BRANCH  16  23
ATOM     21  C7  NA1 A   2       0.808  47.190  69.076  0.00  0.00    +0.209 C 
ATOM     22  C8  NA1 A   2       1.878  46.965  70.142  0.00  0.00    +0.111 C 
ATOM     23  N2  NA1 A   2       1.081  48.200  68.280  0.00  0.00    -0.305 N 
ATOM     24  O7  NA1 A   2      -0.186  46.503  68.999  0.00  0.00    -0.278 OA
ATOM     25  HN2 NA1 A   2       1.942  48.696  68.459  0.00  0.00    +0.150 HD
ENDBRANCH  16  23
BRANCH  18  26
ATOM     26  O4  NA1 A   2       0.867  48.981  63.509  0.00  0.00    -0.388 OA
ATOM     27  HO4 NA1 A   2       1.738  48.622  63.690  0.00  0.00    +0.211 HD
ENDBRANCH  18  26
BRANCH  17  28
ATOM     28  O3  NA1 A   2       2.293  48.938  65.914  0.00  0.00    -0.388 OA
ATOM     29  HO3 NA1 A   2       2.707  48.599  66.711  0.00  0.00    +0.211 HD
ENDBRANCH  17  28
BRANCH  19  30
ATOM     30  C6  NA1 A   2      -0.576  51.620  63.985  0.00  0.00    +0.194 C 
BRANCH  30  31
ATOM     31  O6  NA1 A   2      -1.943  51.225  63.703  0.00  0.00    -0.382 OA
ATOM     32  C9  NA1 A   2      -2.655  52.031  62.889  0.00  0.00    +0.195 C 
ENDBRANCH  30  31
ENDBRANCH  19  30
ENDBRANCH  14  15
ENDBRANCH   4  14
BRANCH   1  33
ATOM     33  O4  AMI A   3      -6.456  49.272  67.558  0.00  0.00    -0.344 OA
BRANCH  33  37
ATOM     34  C1  AMI A   3      -7.910  50.140  64.328  0.00  0.00    +0.164 C 
ATOM     35  C2  AMI A   3      -6.410  50.284  63.997  0.00  0.00    +0.171 C 
ATOM     36  C3  AMI A   3      -5.691  49.700  65.213  0.00  0.00    +0.171 C 
ATOM     37  C4  AMI A   3      -6.627  50.049  66.385  0.00  0.00    +0.160 C 
ATOM     38  C5  AMI A   3      -7.943  49.593  65.760  0.00  0.00    +0.078 C 
ATOM     39  C7  AMI A   3      -7.366  48.891  62.492  0.00  0.00    +0.229 C 
ATOM     40  C8  AMI A   3      -6.390  47.580  60.615  0.00  0.00    +0.133 C 
ATOM     41  C9  AMI A   3      -8.849  47.480  61.121  0.00  0.00    +0.133 C 
ATOM     42  N2  AMI A   3      -6.211  49.464  62.844  0.00  0.00    -0.240 NA
ATOM     43  N7  AMI A   3      -7.500  47.950  61.526  0.00  0.00    -0.302 N 
ATOM     44  O7  AMI A   3      -8.403  49.196  63.346  0.00  0.00    -0.311 OA
BRANCH  36  45
ATOM     45  O3  AMI A   3      -4.437  50.375  65.320  0.00  0.00    -0.388 OA
ATOM     46  HO3 AMI A   3      -4.577  51.322  65.254  0.00  0.00    +0.211 HD
ENDBRANCH  36  45
BRANCH  38  47
ATOM     47  C6  AMI A   3      -9.225  50.065  66.551  0.00  0.00    +0.165 C 
BRANCH  47  48
ATOM     48  O6  AMI A   3      -9.185  51.502  66.749  0.00  0.00    -0.396 OA
ATOM     49  HO6 AMI A   3      -9.580  51.941  65.991  0.00  0.00    +0.210 HD
ENDBRANCH  47  48
ENDBRANCH  38  47
ENDBRANCH  33  37
ENDBRANCH   1  33
BRANCH   5  50
ATOM     50  C6  NAA A   1      -3.067  52.373  68.363  0.00  0.00    +0.191 C 
BRANCH  50  51
ATOM     51  O6  NAA A   1      -1.955  52.718  69.235  0.00  0.00    -0.394 OA
ATOM     52  HO6 NAA A   1      -1.501  51.917  69.508  0.00  0.00    +0.210 HD
ENDBRANCH  50  51
ENDBRANCH   5  50
TORSDOF 16
ENDMDL
MODEL 6
REMARK VINA RESULT:      -7.5      3.962      6.762
REMARK  Name = 3fy1
REMARK  21 active torsions:
REMARK  status: ('A' for Active; 'I' for Inactive)
REMARK    1  A    between atoms: C1_1  and  O4_71
REMARK    2  A    between atoms: C2_2  and  N2_9
REMARK    3  A    between atoms: C3_3  and  O3_10
REMARK    4  A    between atoms: C4_4  and  O4_11
REMARK    5  A    between atoms: C5_5  and  C6_6
REMARK    6  A    between atoms: C6_6  and  O6_13
REMARK    7  A    between atoms: C7_7  and  C8_8
REMARK    8  A    between atoms: O4_11  and  C1_28
REMARK    9  A    between atoms: C2_29  and  N2_36
REMARK   10  A    between atoms: C3_30  and  O3_37
REMARK   11  A    between atoms: C4_31  and  O4_38
REMARK   12  A    between atoms: C5_32  and  C6_33
REMARK   13  A    between atoms: C6_33  and  O6_40
REMARK   14  A    between atoms: C7_34  and  C8_35
REMARK   15  A    between atoms: O6_40  and  C9_41
REMARK   16  A    between atoms: C3_61  and  O3_70
REMARK   17  A    between atoms: C4_62  and  O4_71
REMARK   18  A    between atoms: C5_63  and  C6_64
REMARK   19  A    between atoms: C6_64  and  O6_72
REMARK   20  A    between atoms: C8_66  and  N7_69
REMARK   21  A    between atoms: C9_67  and  N7_69
REMARK                            x       y       z     vdW  Elec       q    Type
REMARK                         _______ _______ _______ _____ _____    ______ ____
ROOT
ATOM      1  C1  NAA A   1      -1.710  48.519  67.223  0.00  0.00    +0.273 C 
ATOM      2  C2  NAA A   1      -0.184  48.250  67.063  0.00  0.00    +0.161 C 
ATOM      3  C3  NAA A   1       0.492  49.446  66.343  0.00  0.00    +0.171 C 
ATOM      4  C4  NAA A   1      -0.337  49.734  65.000  0.00  0.00    +0.183 C 
ATOM      5  C5  NAA A   1      -1.836  50.026  65.353  0.00  0.00    +0.178 C 
ATOM      6  O5  NAA A   1      -2.341  48.849  65.979  0.00  0.00    -0.342 OA
ENDROOT
BRANCH   2   9
ATOM      7  C7  NAA A   1       1.146  47.111  68.776  0.00  0.00    +0.209 C 
ATOM      8  C8  NAA A   1       1.530  46.999  70.246  0.00  0.00    +0.111 C 
ATOM      9  N2  NAA A   1       0.284  48.054  68.464  0.00  0.00    -0.305 N 
ATOM     10  O7  NAA A   1       1.626  46.352  67.931  0.00  0.00    -0.278 OA
ATOM     11  HN2 NAA A   1      -0.069  48.661  69.191  0.00  0.00    +0.150 HD
ENDBRANCH   2   9
BRANCH   3  12
ATOM     12  O3  NAA A   1       0.497  50.594  67.192  0.00  0.00    -0.388 OA
ATOM     13  HO3 NAA A   1       1.296  51.105  67.036  0.00  0.00    +0.211 HD
ENDBRANCH   3  12
BRANCH   4  14
ATOM     14  O4  NAA A   1       0.164  50.819  64.243  0.00  0.00    -0.342 OA
BRANCH  14  15
ATOM     15  C1  NA1 A   2       0.654  50.492  62.961  0.00  0.00    +0.274 C 
ATOM     16  C2  NA1 A   2       0.924  51.812  62.185  0.00  0.00    +0.161 C 
ATOM     17  C3  NA1 A   2       1.899  51.657  61.021  0.00  0.00    +0.171 C 
ATOM     18  C4  NA1 A   2       3.141  50.870  61.499  0.00  0.00    +0.176 C 
ATOM     19  C5  NA1 A   2       2.675  49.464  62.080  0.00  0.00    +0.178 C 
ATOM     20  O5  NA1 A   2       1.901  49.813  63.276  0.00  0.00    -0.342 OA
BRANCH  16  23
ATOM     21  C7  NA1 A   2      -0.734  53.597  61.714  0.00  0.00    +0.209 C 
ATOM     22  C8  NA1 A   2      -2.156  53.788  61.192  0.00  0.00    +0.111 C 
ATOM     23  N2  NA1 A   2      -0.362  52.336  61.742  0.00  0.00    -0.305 N 
ATOM     24  O7  NA1 A   2      -0.043  54.525  62.072  0.00  0.00    -0.278 OA
ATOM     25  HN2 NA1 A   2      -1.040  51.659  61.421  0.00  0.00    +0.150 HD
ENDBRANCH  16  23
BRANCH  18  26
ATOM     26  O4  NA1 A   2       4.002  50.732  60.401  0.00  0.00    -0.388 OA
ATOM     27  HO4 NA1 A   2       4.527  51.529  60.303  0.00  0.00    +0.211 HD
ENDBRANCH  18  26
BRANCH  17  28
ATOM     28  O3  NA1 A   2       1.248  50.962  59.972  0.00  0.00    -0.388 OA
ATOM     29  HO3 NA1 A   2       0.453  50.542  60.310  0.00  0.00    +0.211 HD
ENDBRANCH  17  28
BRANCH  19  30
ATOM     30  C6  NA1 A   2       3.864  48.535  62.505  0.00  0.00    +0.194 C 
BRANCH  30  31
ATOM     31  O6  NA1 A   2       4.497  47.868  61.383  0.00  0.00    -0.382 OA
ATOM     32  C9  NA1 A   2       5.334  46.851  61.673  0.00  0.00    +0.195 C 
ENDBRANCH  30  31
ENDBRANCH  19  30
ENDBRANCH  14  15
ENDBRANCH   4  14
BRANCH   1  33
ATOM     33  O4  AMI A   3      -2.289  47.332  67.718  0.00  0.00    -0.344 OA
BRANCH  33  37
ATOM     34  C1  AMI A   3      -5.531  46.202  68.944  0.00  0.00    +0.164 C 
ATOM     35  C2  AMI A   3      -5.919  47.591  68.395  0.00  0.00    +0.171 C 
ATOM     36  C3  AMI A   3      -4.683  48.058  67.628  0.00  0.00    +0.171 C 
ATOM     37  C4  AMI A   3      -3.514  47.444  68.420  0.00  0.00    +0.160 C 
ATOM     38  C5  AMI A   3      -4.060  46.024  68.553  0.00  0.00    +0.078 C 
ATOM     39  C7  AMI A   3      -7.276  46.030  67.479  0.00  0.00    +0.229 C 
ATOM     40  C8  AMI A   3      -9.071  46.217  65.765  0.00  0.00    +0.133 C 
ATOM     41  C9  AMI A   3      -8.483  43.997  66.784  0.00  0.00    +0.133 C 
ATOM     42  N2  AMI A   3      -7.008  47.340  67.506  0.00  0.00    -0.240 NA
ATOM     43  N7  AMI A   3      -8.160  45.440  66.637  0.00  0.00    -0.302 N 
ATOM     44  O7  AMI A   3      -6.418  45.287  68.257  0.00  0.00    -0.311 OA
BRANCH  36  45
ATOM     45  O3  AMI A   3      -4.669  49.485  67.688  0.00  0.00    -0.388 OA
ATOM     46  HO3 AMI A   3      -4.972  49.844  66.851  0.00  0.00    +0.211 HD
ENDBRANCH  36  45
BRANCH  38  47
ATOM     47  C6  AMI A   3      -3.270  45.129  69.585  0.00  0.00    +0.165 C 
BRANCH  47  48
ATOM     48  O6  AMI A   3      -1.845  45.202  69.318  0.00  0.00    -0.396 OA
ATOM     49  HO6 AMI A   3      -1.676  44.942  68.409  0.00  0.00    +0.210 HD
ENDBRANCH  47  48
ENDBRANCH  38  47
ENDBRANCH  33  37
ENDBRANCH   1  33
BRANCH   5  50
ATOM     50  C6  NAA A   1      -2.705  50.280  64.127  0.00  0.00    +0.191 C 
BRANCH  50  51
ATOM     51  O6  NAA A   1      -2.731  51.715  63.894  0.00  0.00    -0.394 OA
ATOM     52  HO6 NAA A   1      -1.897  51.992  63.507  0.00  0.00    +0.210 HD
ENDBRANCH  50  51
ENDBRANCH   5  50
TORSDOF 16
ENDMDL
MODEL 7
REMARK VINA RESULT:      -7.5      5.824      7.908
REMARK  Name = 3fy1
REMARK  21 active torsions:
REMARK  status: ('A' for Active; 'I' for Inactive)
REMARK    1  A    between atoms: C1_1  and  O4_71
REMARK    2  A    between atoms: C2_2  and  N2_9
REMARK    3  A    between atoms: C3_3  and  O3_10
REMARK    4  A    between atoms: C4_4  and  O4_11
REMARK    5  A    between atoms: C5_5  and  C6_6
REMARK    6  A    between atoms: C6_6  and  O6_13
REMARK    7  A    between atoms: C7_7  and  C8_8
REMARK    8  A    between atoms: O4_11  and  C1_28
REMARK    9  A    between atoms: C2_29  and  N2_36
REMARK   10  A    between atoms: C3_30  and  O3_37
REMARK   11  A    between atoms: C4_31  and  O4_38
REMARK   12  A    between atoms: C5_32  and  C6_33
REMARK   13  A    between atoms: C6_33  and  O6_40
REMARK   14  A    between atoms: C7_34  and  C8_35
REMARK   15  A    between atoms: O6_40  and  C9_41
REMARK   16  A    between atoms: C3_61  and  O3_70
REMARK   17  A    between atoms: C4_62  and  O4_71
REMARK   18  A    between atoms: C5_63  and  C6_64
REMARK   19  A    between atoms: C6_64  and  O6_72
REMARK   20  A    between atoms: C8_66  and  N7_69
REMARK   21  A    between atoms: C9_67  and  N7_69
REMARK                            x       y       z     vdW  Elec       q    Type
REMARK                         _______ _______ _______ _____ _____    ______ ____
ROOT
ATOM      1  C1  NAA A   1      -5.066  46.810  68.070  0.00  0.00    +0.273 C 
ATOM      2  C2  NAA A   1      -5.743  48.038  67.391  0.00  0.00    +0.161 C 
ATOM      3  C3  NAA A   1      -4.681  48.876  66.633  0.00  0.00    +0.171 C 
ATOM      4  C4  NAA A   1      -3.484  49.183  67.658  0.00  0.00    +0.183 C 
ATOM      5  C5  NAA A   1      -2.896  47.837  68.206  0.00  0.00    +0.178 C 
ATOM      6  O5  NAA A   1      -3.958  47.183  68.897  0.00  0.00    -0.342 OA
ENDROOT
BRANCH   2   9
ATOM      7  C7  NAA A   1      -7.942  47.985  66.311  0.00  0.00    +0.209 C 
ATOM      8  C8  NAA A   1      -8.909  47.249  65.393  0.00  0.00    +0.111 C 
ATOM      9  N2  NAA A   1      -6.766  47.423  66.500  0.00  0.00    -0.305 N 
ATOM     10  O7  NAA A   1      -8.253  49.053  66.844  0.00  0.00    -0.278 OA
ATOM     11  HN2 NAA A   1      -6.553  46.555  66.029  0.00  0.00    +0.150 HD
ENDBRANCH   2   9
BRANCH   3  12
ATOM     12  O3  NAA A   1      -4.203  48.156  65.497  0.00  0.00    -0.388 OA
ATOM     13  HO3 NAA A   1      -4.363  48.670  64.701  0.00  0.00    +0.211 HD
ENDBRANCH   3  12
BRANCH   4  14
ATOM     14  O4  NAA A   1      -2.429  49.935  67.092  0.00  0.00    -0.342 OA
BRANCH  14  15
ATOM     15  C1  NA1 A   2      -1.995  49.513  65.818  0.00  0.00    +0.274 C 
ATOM     16  C2  NA1 A   2      -1.958  50.748  64.875  0.00  0.00    +0.161 C 
ATOM     17  C3  NA1 A   2      -1.060  50.568  63.655  0.00  0.00    +0.171 C 
ATOM     18  C4  NA1 A   2       0.307  50.004  64.108  0.00  0.00    +0.176 C 
ATOM     19  C5  NA1 A   2       0.073  48.635  64.884  0.00  0.00    +0.178 C 
ATOM     20  O5  NA1 A   2      -0.650  49.034  66.097  0.00  0.00    -0.342 OA
BRANCH  16  23
ATOM     21  C7  NA1 A   2      -3.721  51.859  63.527  0.00  0.00    +0.209 C 
ATOM     22  C8  NA1 A   2      -5.241  51.946  63.402  0.00  0.00    +0.111 C 
ATOM     23  N2  NA1 A   2      -3.332  51.053  64.491  0.00  0.00    -0.305 N 
ATOM     24  O7  NA1 A   2      -2.973  52.484  62.810  0.00  0.00    -0.278 OA
ATOM     25  HN2 NA1 A   2      -4.061  50.597  65.020  0.00  0.00    +0.150 HD
ENDBRANCH  16  23
BRANCH  18  26
ATOM     26  O4  NA1 A   2       1.096  49.835  62.960  0.00  0.00    -0.388 OA
ATOM     27  HO4 NA1 A   2       0.597  49.354  62.296  0.00  0.00    +0.211 HD
ENDBRANCH  18  26
BRANCH  17  28
ATOM     28  O3  NA1 A   2      -1.689  49.675  62.754  0.00  0.00    -0.388 OA
ATOM     29  HO3 NA1 A   2      -2.409  50.125  62.306  0.00  0.00    +0.211 HD
ENDBRANCH  17  28
BRANCH  19  30
ATOM     30  C6  NA1 A   2       1.401  47.918  65.305  0.00  0.00    +0.194 C 
BRANCH  30  31
ATOM     31  O6  NA1 A   2       1.694  46.743  64.507  0.00  0.00    -0.382 OA
ATOM     32  C9  NA1 A   2       2.815  46.780  63.757  0.00  0.00    +0.195 C 
ENDBRANCH  30  31
ENDBRANCH  19  30
ENDBRANCH  14  15
ENDBRANCH   4  14
BRANCH   1  33
ATOM     33  O4  AMI A   3      -6.043  46.195  68.880  0.00  0.00    -0.344 OA
BRANCH  33  37
ATOM     34  C1  AMI A   3      -7.055  42.941  70.175  0.00  0.00    +0.164 C 
ATOM     35  C2  AMI A   3      -5.586  42.974  70.646  0.00  0.00    +0.171 C 
ATOM     36  C3  AMI A   3      -5.129  44.407  70.374  0.00  0.00    +0.171 C 
ATOM     37  C4  AMI A   3      -5.920  44.803  69.114  0.00  0.00    +0.160 C 
ATOM     38  C5  AMI A   3      -7.299  44.322  69.558  0.00  0.00    +0.078 C 
ATOM     39  C7  AMI A   3      -6.919  42.547  72.423  0.00  0.00    +0.229 C 
ATOM     40  C8  AMI A   3      -6.396  42.270  74.840  0.00  0.00    +0.133 C 
ATOM     41  C9  AMI A   3      -8.758  42.100  74.001  0.00  0.00    +0.133 C 
ATOM     42  N2  AMI A   3      -5.646  42.715  72.049  0.00  0.00    -0.240 NA
ATOM     43  N7  AMI A   3      -7.338  42.420  73.706  0.00  0.00    -0.302 N 
ATOM     44  O7  AMI A   3      -7.813  42.716  71.389  0.00  0.00    -0.311 OA
BRANCH  36  45
ATOM     45  O3  AMI A   3      -3.725  44.357  70.122  0.00  0.00    -0.388 OA
ATOM     46  HO3 AMI A   3      -3.276  44.999  70.677  0.00  0.00    +0.211 HD
ENDBRANCH  36  45
BRANCH  38  47
ATOM     47  C6  AMI A   3      -8.367  44.278  68.397  0.00  0.00    +0.165 C 
BRANCH  47  48
ATOM     48  O6  AMI A   3      -7.733  44.585  67.127  0.00  0.00    -0.396 OA
ATOM     49  HO6 AMI A   3      -6.798  44.367  67.175  0.00  0.00    +0.210 HD
ENDBRANCH  47  48
ENDBRANCH  38  47
ENDBRANCH  33  37
ENDBRANCH   1  33
BRANCH   5  50
ATOM     50  C6  NAA A   1      -1.772  48.038  69.214  0.00  0.00    +0.191 C 
BRANCH  50  51
ATOM     51  O6  NAA A   1      -2.178  49.099  70.122  0.00  0.00    -0.394 OA
ATOM     52  HO6 NAA A   1      -2.973  48.833  70.591  0.00  0.00    +0.210 HD
ENDBRANCH  50  51
ENDBRANCH   5  50
TORSDOF 16
ENDMDL
MODEL 8
REMARK VINA RESULT:      -7.4      4.086     10.476
REMARK  Name = 3fy1
REMARK  21 active torsions:
REMARK  status: ('A' for Active; 'I' for Inactive)
REMARK    1  A    between atoms: C1_1  and  O4_71
REMARK    2  A    between atoms: C2_2  and  N2_9
REMARK    3  A    between atoms: C3_3  and  O3_10
REMARK    4  A    between atoms: C4_4  and  O4_11
REMARK    5  A    between atoms: C5_5  and  C6_6
REMARK    6  A    between atoms: C6_6  and  O6_13
REMARK    7  A    between atoms: C7_7  and  C8_8
REMARK    8  A    between atoms: O4_11  and  C1_28
REMARK    9  A    between atoms: C2_29  and  N2_36
REMARK   10  A    between atoms: C3_30  and  O3_37
REMARK   11  A    between atoms: C4_31  and  O4_38
REMARK   12  A    between atoms: C5_32  and  C6_33
REMARK   13  A    between atoms: C6_33  and  O6_40
REMARK   14  A    between atoms: C7_34  and  C8_35
REMARK   15  A    between atoms: O6_40  and  C9_41
REMARK   16  A    between atoms: C3_61  and  O3_70
REMARK   17  A    between atoms: C4_62  and  O4_71
REMARK   18  A    between atoms: C5_63  and  C6_64
REMARK   19  A    between atoms: C6_64  and  O6_72
REMARK   20  A    between atoms: C8_66  and  N7_69
REMARK   21  A    between atoms: C9_67  and  N7_69
REMARK                            x       y       z     vdW  Elec       q    Type
REMARK                         _______ _______ _______ _____ _____    ______ ____
ROOT
ATOM      1  C1  NAA A   1      -1.900  51.844  62.353  0.00  0.00    +0.273 C 
ATOM      2  C2  NAA A   1      -1.345  51.119  63.615  0.00  0.00    +0.161 C 
ATOM      3  C3  NAA A   1      -2.379  50.085  64.130  0.00  0.00    +0.171 C 
ATOM      4  C4  NAA A   1      -3.784  50.844  64.291  0.00  0.00    +0.183 C 
ATOM      5  C5  NAA A   1      -4.208  51.473  62.919  0.00  0.00    +0.178 C 
ATOM      6  O5  NAA A   1      -3.195  52.416  62.576  0.00  0.00    -0.342 OA
ENDROOT
BRANCH   2   9
ATOM      7  C7  NAA A   1       0.804  49.996  63.970  0.00  0.00    +0.209 C 
ATOM      8  C8  NAA A   1       2.072  49.416  63.355  0.00  0.00    +0.111 C 
ATOM      9  N2  NAA A   1      -0.076  50.505  63.133  0.00  0.00    -0.305 N 
ATOM     10  O7  NAA A   1       0.621  49.984  65.189  0.00  0.00    -0.278 OA
ATOM     11  HN2 NAA A   1       0.114  50.478  62.141  0.00  0.00    +0.150 HD
ENDBRANCH   2   9
BRANCH   3  12
ATOM     12  O3  NAA A   1      -2.492  48.999  63.210  0.00  0.00    -0.388 OA
ATOM     13  HO3 NAA A   1      -3.386  48.649  63.235  0.00  0.00    +0.211 HD
ENDBRANCH   3  12
BRANCH   4  14
ATOM     14  O4  NAA A   1      -4.834  50.010  64.744  0.00  0.00    -0.342 OA
BRANCH  14  15
ATOM     15  C1  NA1 A   2      -5.033  49.989  66.140  0.00  0.00    +0.274 C 
ATOM     16  C2  NA1 A   2      -4.711  48.561  66.663  0.00  0.00    +0.161 C 
ATOM     17  C3  NA1 A   2      -4.393  48.505  68.154  0.00  0.00    +0.171 C 
ATOM     18  C4  NA1 A   2      -3.371  49.614  68.499  0.00  0.00    +0.176 C 
ATOM     19  C5  NA1 A   2      -3.968  51.023  68.068  0.00  0.00    +0.178 C 
ATOM     20  O5  NA1 A   2      -4.041  50.946  66.605  0.00  0.00    -0.342 OA
BRANCH  16  23
ATOM     21  C7  NA1 A   2      -5.973  46.973  65.233  0.00  0.00    +0.209 C 
ATOM     22  C8  NA1 A   2      -7.284  46.190  65.201  0.00  0.00    +0.111 C 
ATOM     23  N2  NA1 A   2      -5.837  47.699  66.321  0.00  0.00    -0.305 N 
ATOM     24  O7  NA1 A   2      -5.164  46.923  64.334  0.00  0.00    -0.278 OA
ATOM     25  HN2 NA1 A   2      -6.592  47.656  66.990  0.00  0.00    +0.150 HD
ENDBRANCH  16  23
BRANCH  18  26
ATOM     26  O4  NA1 A   2      -3.119  49.542  69.877  0.00  0.00    -0.388 OA
ATOM     27  HO4 NA1 A   2      -2.307  49.055  70.029  0.00  0.00    +0.211 HD
ENDBRANCH  18  26
BRANCH  17  28
ATOM     28  O3  NA1 A   2      -5.592  48.695  68.883  0.00  0.00    -0.388 OA
ATOM     29  HO3 NA1 A   2      -5.538  48.224  69.718  0.00  0.00    +0.211 HD
ENDBRANCH  17  28
BRANCH  19  30
ATOM     30  C6  NA1 A   2      -3.059  52.237  68.461  0.00  0.00    +0.194 C 
BRANCH  30  31
ATOM     31  O6  NA1 A   2      -1.658  51.884  68.591  0.00  0.00    -0.382 OA
ATOM     32  C9  NA1 A   2      -0.867  52.126  67.526  0.00  0.00    +0.195 C 
ENDBRANCH  30  31
ENDBRANCH  19  30
ENDBRANCH  14  15
ENDBRANCH   4  14
BRANCH   1  33
ATOM     33  O4  AMI A   3      -0.999  52.883  62.044  0.00  0.00    -0.344 OA
BRANCH  33  37
ATOM     34  C1  AMI A   3       0.202  54.834  59.208  0.00  0.00    +0.164 C 
ATOM     35  C2  AMI A   3      -1.252  55.342  59.289  0.00  0.00    +0.171 C 
ATOM     36  C3  AMI A   3      -1.783  54.775  60.605  0.00  0.00    +0.171 C 
ATOM     37  C4  AMI A   3      -1.049  53.428  60.737  0.00  0.00    +0.160 C 
ATOM     38  C5  AMI A   3       0.363  53.914  60.423  0.00  0.00    +0.078 C 
ATOM     39  C7  AMI A   3       0.152  57.116  59.326  0.00  0.00    +0.229 C 
ATOM     40  C8  AMI A   3      -0.286  59.553  59.580  0.00  0.00    +0.133 C 
ATOM     41  C9  AMI A   3       2.056  58.681  59.318  0.00  0.00    +0.133 C 
ATOM     42  N2  AMI A   3      -1.138  56.765  59.355  0.00  0.00    -0.240 NA
ATOM     43  N7  AMI A   3       0.614  58.377  59.508  0.00  0.00    -0.302 N 
ATOM     44  O7  AMI A   3       1.005  56.036  59.292  0.00  0.00    -0.311 OA
BRANCH  36  45
ATOM     45  O3  AMI A   3      -3.191  54.595  60.443  0.00  0.00    -0.388 OA
ATOM     46  HO3 AMI A   3      -3.659  55.204  61.018  0.00  0.00    +0.211 HD
ENDBRANCH  36  45
BRANCH  38  47
ATOM     47  C6  AMI A   3       1.397  52.751  60.160  0.00  0.00    +0.165 C 
BRANCH  47  48
ATOM     48  O6  AMI A   3       1.797  52.148  61.419  0.00  0.00    -0.396 OA
ATOM     49  HO6 AMI A   3       1.035  52.082  61.999  0.00  0.00    +0.210 HD
ENDBRANCH  47  48
ENDBRANCH  38  47
ENDBRANCH  33  37
ENDBRANCH   1  33
BRANCH   5  50
ATOM     50  C6  NAA A   1      -5.520  52.243  62.990  0.00  0.00    +0.191 C 
BRANCH  50  51
ATOM     51  O6  NAA A   1      -5.725  52.640  64.374  0.00  0.00    -0.394 OA
ATOM     52  HO6 NAA A   1      -6.450  53.269  64.423  0.00  0.00    +0.210 HD
ENDBRANCH  50  51
ENDBRANCH   5  50
TORSDOF 16
ENDMDL
MODEL 9
REMARK VINA RESULT:      -7.3      5.564     11.237
REMARK  Name = 3fy1
REMARK  21 active torsions:
REMARK  status: ('A' for Active; 'I' for Inactive)
REMARK    1  A    between atoms: C1_1  and  O4_71
REMARK    2  A    between atoms: C2_2  and  N2_9
REMARK    3  A    between atoms: C3_3  and  O3_10
REMARK    4  A    between atoms: C4_4  and  O4_11
REMARK    5  A    between atoms: C5_5  and  C6_6
REMARK    6  A    between atoms: C6_6  and  O6_13
REMARK    7  A    between atoms: C7_7  and  C8_8
REMARK    8  A    between atoms: O4_11  and  C1_28
REMARK    9  A    between atoms: C2_29  and  N2_36
REMARK   10  A    between atoms: C3_30  and  O3_37
REMARK   11  A    between atoms: C4_31  and  O4_38
REMARK   12  A    between atoms: C5_32  and  C6_33
REMARK   13  A    between atoms: C6_33  and  O6_40
REMARK   14  A    between atoms: C7_34  and  C8_35
REMARK   15  A    between atoms: O6_40  and  C9_41
REMARK   16  A    between atoms: C3_61  and  O3_70
REMARK   17  A    between atoms: C4_62  and  O4_71
REMARK   18  A    between atoms: C5_63  and  C6_64
REMARK   19  A    between atoms: C6_64  and  O6_72
REMARK   20  A    between atoms: C8_66  and  N7_69
REMARK   21  A    between atoms: C9_67  and  N7_69
REMARK                            x       y       z     vdW  Elec       q    Type
REMARK                         _______ _______ _______ _____ _____    ______ ____
ROOT
ATOM      1  C1  NAA A   1      -4.311  49.459  65.744  0.00  0.00    +0.273 C 
ATOM      2  C2  NAA A   1      -5.278  48.644  66.653  0.00  0.00    +0.161 C 
ATOM      3  C3  NAA A   1      -4.611  48.372  68.026  0.00  0.00    +0.171 C 
ATOM      4  C4  NAA A   1      -3.167  47.730  67.745  0.00  0.00    +0.183 C 
ATOM      5  C5  NAA A   1      -2.318  48.703  66.855  0.00  0.00    +0.178 C 
ATOM      6  O5  NAA A   1      -3.023  48.845  65.624  0.00  0.00    -0.342 OA
ENDROOT
BRANCH   2   9
ATOM      7  C7  NAA A   1      -7.674  49.070  66.370  0.00  0.00    +0.209 C 
ATOM      8  C8  NAA A   1      -8.830  50.056  66.485  0.00  0.00    +0.111 C 
ATOM      9  N2  NAA A   1      -6.489  49.508  66.738  0.00  0.00    -0.305 N 
ATOM     10  O7  NAA A   1      -7.851  47.923  65.953  0.00  0.00    -0.278 OA
ATOM     11  HN2 NAA A   1      -6.398  50.452  67.087  0.00  0.00    +0.150 HD
ENDBRANCH   2   9
BRANCH   3  12
ATOM     12  O3  NAA A   1      -4.489  49.587  68.765  0.00  0.00    -0.388 OA
ATOM     13  HO3 NAA A   1      -3.838  49.476  69.462  0.00  0.00    +0.211 HD
ENDBRANCH   3  12
BRANCH   4  14
ATOM     14  O4  NAA A   1      -2.433  47.442  68.919  0.00  0.00    -0.342 OA
BRANCH  14  15
ATOM     15  C1  NA1 A   2      -2.449  46.093  69.331  0.00  0.00    +0.274 C 
ATOM     16  C2  NA1 A   2      -1.747  45.991  70.714  0.00  0.00    +0.161 C 
ATOM     17  C3  NA1 A   2      -2.118  44.740  71.505  0.00  0.00    +0.171 C 
ATOM     18  C4  NA1 A   2      -3.655  44.568  71.497  0.00  0.00    +0.176 C 
ATOM     19  C5  NA1 A   2      -4.161  44.495  69.991  0.00  0.00    +0.178 C 
ATOM     20  O5  NA1 A   2      -3.875  45.830  69.453  0.00  0.00    -0.342 OA
BRANCH  16  23
ATOM     21  C7  NA1 A   2       0.456  47.132  70.666  0.00  0.00    +0.209 C 
ATOM     22  C8  NA1 A   2       1.922  46.867  70.329  0.00  0.00    +0.111 C 
ATOM     23  N2  NA1 A   2      -0.309  46.077  70.488  0.00  0.00    -0.305 N 
ATOM     24  O7  NA1 A   2       0.060  48.212  71.044  0.00  0.00    -0.278 OA
ATOM     25  HN2 NA1 A   2       0.148  45.238  70.161  0.00  0.00    +0.150 HD
ENDBRANCH  16  23
BRANCH  18  26
ATOM     26  O4  NA1 A   2      -3.954  43.402  72.215  0.00  0.00    -0.388 OA
ATOM     27  HO4 NA1 A   2      -3.233  42.775  72.124  0.00  0.00    +0.211 HD
ENDBRANCH  18  26
BRANCH  17  28
ATOM     28  O3  NA1 A   2      -1.493  43.620  70.905  0.00  0.00    -0.388 OA
ATOM     29  HO3 NA1 A   2      -1.899  42.813  71.231  0.00  0.00    +0.211 HD
ENDBRANCH  17  28
BRANCH  19  30
ATOM     30  C6  NA1 A   2      -5.698  44.220  69.858  0.00  0.00    +0.194 C 
BRANCH  30  31
ATOM     31  O6  NA1 A   2      -6.142  43.071  70.624  0.00  0.00    -0.382 OA
ATOM     32  C9  NA1 A   2      -7.440  43.048  70.992  0.00  0.00    +0.195 C 
ENDBRANCH  30  31
ENDBRANCH  19  30
ENDBRANCH  14  15
ENDBRANCH   4  14
BRANCH   1  33
ATOM     33  O4  AMI A   3      -4.901  49.519  64.464  0.00  0.00    -0.344 OA
BRANCH  33  37
ATOM     34  C1  AMI A   3      -4.435  48.016  61.175  0.00  0.00    +0.164 C 
ATOM     35  C2  AMI A   3      -5.294  46.926  61.851  0.00  0.00    +0.171 C 
ATOM     36  C3  AMI A   3      -5.761  47.564  63.159  0.00  0.00    +0.171 C 
ATOM     37  C4  AMI A   3      -4.589  48.482  63.551  0.00  0.00    +0.160 C 
ATOM     38  C5  AMI A   3      -4.375  49.156  62.198  0.00  0.00    +0.078 C 
ATOM     39  C7  AMI A   3      -6.272  47.532  59.903  0.00  0.00    +0.229 C 
ATOM     40  C8  AMI A   3      -8.417  46.831  58.854  0.00  0.00    +0.133 C 
ATOM     41  C9  AMI A   3      -6.919  48.509  57.736  0.00  0.00    +0.133 C 
ATOM     42  N2  AMI A   3      -6.392  46.723  60.961  0.00  0.00    -0.240 NA
ATOM     43  N7  AMI A   3      -7.212  47.689  58.939  0.00  0.00    -0.302 N 
ATOM     44  O7  AMI A   3      -5.176  48.361  59.979  0.00  0.00    -0.311 OA
BRANCH  36  45
ATOM     45  O3  AMI A   3      -5.939  46.504  64.099  0.00  0.00    -0.388 OA
ATOM     46  HO3 AMI A   3      -6.863  46.453  64.354  0.00  0.00    +0.211 HD
ENDBRANCH  36  45
BRANCH  38  47
ATOM     47  C6  AMI A   3      -3.031  49.978  62.098  0.00  0.00    +0.165 C 
BRANCH  47  48
ATOM     48  O6  AMI A   3      -2.050  49.441  63.023  0.00  0.00    -0.396 OA
ATOM     49  HO6 AMI A   3      -1.300  50.038  63.078  0.00  0.00    +0.210 HD
ENDBRANCH  47  48
ENDBRANCH  38  47
ENDBRANCH  33  37
ENDBRANCH   1  33
BRANCH   5  50
ATOM     50  C6  NAA A   1      -0.939  48.154  66.512  0.00  0.00    +0.191 C 
BRANCH  50  51
ATOM     51  O6  NAA A   1      -0.024  48.569  67.564  0.00  0.00    -0.394 OA
ATOM     52  HO6 NAA A   1       0.779  48.044  67.515  0.00  0.00    +0.210 HD
ENDBRANCH  50  51
ENDBRANCH   5  50
TORSDOF 16
ENDMDL
