MODEL 1
REMARK VINA RESULT:      -8.9      0.000      0.000
REMARK  Name = 3fy1
REMARK  21 active torsions:
REMARK  status: ('A' for Active; 'I' for Inactive)
REMARK    1  A    between atoms: C1_1  and  O4_71
REMARK    2  A    between atoms: C2_2  and  N2_9
REMARK    3  A    between atoms: C3_3  and  O3_10
REMARK    4  A    between atoms: C4_4  and  O4_11
REMARK    5  A    between atoms: C5_5  and  C6_6
REMARK    6  A    between atoms: C6_6  and  O6_13
REMARK    7  A    between atoms: C7_7  and  C8_8
REMARK    8  A    between atoms: O4_11  and  C1_28
REMARK    9  A    between atoms: C2_29  and  N2_36
REMARK   10  A    between atoms: C3_30  and  O3_37
REMARK   11  A    between atoms: C4_31  and  O4_38
REMARK   12  A    between atoms: C5_32  and  C6_33
REMARK   13  A    between atoms: C6_33  and  O6_40
REMARK   14  A    between atoms: C7_34  and  C8_35
REMARK   15  A    between atoms: O6_40  and  C9_41
REMARK   16  A    between atoms: C3_61  and  O3_70
REMARK   17  A    between atoms: C4_62  and  O4_71
REMARK   18  A    between atoms: C5_63  and  C6_64
REMARK   19  A    between atoms: C6_64  and  O6_72
REMARK   20  A    between atoms: C8_66  and  N7_69
REMARK   21  A    between atoms: C9_67  and  N7_69
REMARK                            x       y       z     vdW  Elec       q    Type
REMARK                         _______ _______ _______ _____ _____    ______ ____
ROOT
ATOM      1  C1  NAA A   1      -0.260  49.853  66.800  0.00  0.00    +0.273 C 
ATOM      2  C2  NAA A   1      -0.254  51.361  66.408  0.00  0.00    +0.161 C 
ATOM      3  C3  NAA A   1      -0.532  51.515  64.890  0.00  0.00    +0.171 C 
ATOM      4  C4  NAA A   1       0.495  50.559  64.110  0.00  0.00    +0.183 C 
ATOM      5  C5  NAA A   1       0.320  49.080  64.598  0.00  0.00    +0.178 C 
ATOM      6  O5  NAA A   1       0.628  49.073  65.990  0.00  0.00    -0.342 OA
ENDROOT
BRANCH   2   9
ATOM      7  C7  NAA A   1      -1.105  53.045  67.970  0.00  0.00    +0.209 C 
ATOM      8  C8  NAA A   1      -2.262  53.536  68.831  0.00  0.00    +0.111 C 
ATOM      9  N2  NAA A   1      -1.315  51.949  67.272  0.00  0.00    -0.305 N 
ATOM     10  O7  NAA A   1      -0.032  53.652  67.935  0.00  0.00    -0.278 OA
ATOM     11  HN2 NAA A   1      -2.217  51.497  67.323  0.00  0.00    +0.150 HD
ENDBRANCH   2   9
BRANCH   3  12
ATOM     12  O3  NAA A   1      -1.882  51.154  64.596  0.00  0.00    -0.388 OA
ATOM     13  HO3 NAA A   1      -1.909  50.656  63.775  0.00  0.00    +0.211 HD
ENDBRANCH   3  12
BRANCH   4  14
ATOM     14  O4  NAA A   1       0.345  50.588  62.704  0.00  0.00    -0.342 OA
BRANCH  14  15
ATOM     15  C1  NA1 A   2       1.222  51.452  62.015  0.00  0.00    +0.274 C 
ATOM     16  C2  NA1 A   2       1.845  50.674  60.822  0.00  0.00    +0.161 C 
ATOM     17  C3  NA1 A   2       2.397  51.571  59.719  0.00  0.00    +0.171 C 
ATOM     18  C4  NA1 A   2       1.348  52.651  59.367  0.00  0.00    +0.176 C 
ATOM     19  C5  NA1 A   2       0.985  53.472  60.680  0.00  0.00    +0.178 C 
ATOM     20  O5  NA1 A   2       0.319  52.489  61.542  0.00  0.00    -0.342 OA
BRANCH  16  23
ATOM     21  C7  NA1 A   2       3.205  48.600  60.904  0.00  0.00    +0.209 C 
ATOM     22  C8  NA1 A   2       4.325  47.947  61.712  0.00  0.00    +0.111 C 
ATOM     23  N2  NA1 A   2       2.871  49.788  61.359  0.00  0.00    -0.305 N 
ATOM     24  O7  NA1 A   2       2.687  48.057  59.955  0.00  0.00    -0.278 OA
ATOM     25  HN2 NA1 A   2       3.380  50.122  62.165  0.00  0.00    +0.150 HD
ENDBRANCH  16  23
BRANCH  18  26
ATOM     26  O4  NA1 A   2       1.898  53.465  58.367  0.00  0.00    -0.388 OA
ATOM     27  HO4 NA1 A   2       1.210  53.721  57.748  0.00  0.00    +0.211 HD
ENDBRANCH  18  26
BRANCH  17  28
ATOM     28  O3  NA1 A   2       3.592  52.177  60.181  0.00  0.00    -0.388 OA
ATOM     29  HO3 NA1 A   2       3.992  52.682  59.468  0.00  0.00    +0.211 HD
ENDBRANCH  17  28
BRANCH  19  30
ATOM     30  C6  NA1 A   2       0.001  54.664  60.424  0.00  0.00    +0.194 C 
BRANCH  30  31
ATOM     31  O6  NA1 A   2       0.521  55.942  60.870  0.00  0.00    -0.382 OA
ATOM     32  C9  NA1 A   2       1.399  56.561  60.053  0.00  0.00    +0.195 C 
ENDBRANCH  30  31
ENDBRANCH  19  30
ENDBRANCH  14  15
ENDBRANCH   4  14
BRANCH   1  33
ATOM     33  O4  AMI A   3       0.170  49.773  68.140  0.00  0.00    -0.344 OA
BRANCH  33  37
ATOM     34  C1  AMI A   3       0.608  47.398  70.872  0.00  0.00    +0.164 C 
ATOM     35  C2  AMI A   3       1.397  46.678  69.758  0.00  0.00    +0.171 C 
ATOM     36  C3  AMI A   3       1.493  47.706  68.631  0.00  0.00    +0.171 C 
ATOM     37  C4  AMI A   3       0.177  48.495  68.752  0.00  0.00    +0.160 C 
ATOM     38  C5  AMI A   3       0.206  48.744  70.258  0.00  0.00    +0.078 C 
ATOM     39  C7  AMI A   3       2.723  46.894  71.579  0.00  0.00    +0.229 C 
ATOM     40  C8  AMI A   3       5.108  46.290  71.954  0.00  0.00    +0.133 C 
ATOM     41  C9  AMI A   3       3.741  47.352  73.775  0.00  0.00    +0.133 C 
ATOM     42  N2  AMI A   3       2.682  46.424  70.327  0.00  0.00    -0.240 NA
ATOM     43  N7  AMI A   3       3.835  46.937  72.352  0.00  0.00    -0.302 N 
ATOM     44  O7  AMI A   3       1.561  47.528  71.955  0.00  0.00    -0.311 OA
BRANCH  36  45
ATOM     45  O3  AMI A   3       1.559  46.975  67.405  0.00  0.00    -0.388 OA
ATOM     46  HO3 AMI A   3       2.040  46.157  67.546  0.00  0.00    +0.211 HD
ENDBRANCH  36  45
BRANCH  38  47
ATOM     47  C6  AMI A   3      -1.156  49.285  70.844  0.00  0.00    +0.165 C 
BRANCH  47  48
ATOM     48  O6  AMI A   3      -1.562  50.483  70.132  0.00  0.00    -0.396 OA
ATOM     49  HO6 AMI A   3      -1.934  50.239  69.281  0.00  0.00    +0.210 HD
ENDBRANCH  47  48
ENDBRANCH  38  47
ENDBRANCH  33  37
ENDBRANCH   1  33
BRANCH   5  50
ATOM     50  C6  NAA A   1       1.283  48.108  63.929  0.00  0.00    +0.191 C 
BRANCH  50  51
ATOM     51  O6  NAA A   1       1.194  46.840  64.637  0.00  0.00    -0.394 OA
ATOM     52  HO6 NAA A   1       0.411  46.838  65.193  0.00  0.00    +0.210 HD
ENDBRANCH  50  51
ENDBRANCH   5  50
TORSDOF 16
ENDMDL
MODEL 2
REMARK VINA RESULT:      -8.3      4.188      6.610
REMARK  Name = 3fy1
REMARK  21 active torsions:
REMARK  status: ('A' for Active; 'I' for Inactive)
REMARK    1  A    between atoms: C1_1  and  O4_71
REMARK    2  A    between atoms: C2_2  and  N2_9
REMARK    3  A    between atoms: C3_3  and  O3_10
REMARK    4  A    between atoms: C4_4  and  O4_11
REMARK    5  A    between atoms: C5_5  and  C6_6
REMARK    6  A    between atoms: C6_6  and  O6_13
REMARK    7  A    between atoms: C7_7  and  C8_8
REMARK    8  A    between atoms: O4_11  and  C1_28
REMARK    9  A    between atoms: C2_29  and  N2_36
REMARK   10  A    between atoms: C3_30  and  O3_37
REMARK   11  A    between atoms: C4_31  and  O4_38
REMARK   12  A    between atoms: C5_32  and  C6_33
REMARK   13  A    between atoms: C6_33  and  O6_40
REMARK   14  A    between atoms: C7_34  and  C8_35
REMARK   15  A    between atoms: O6_40  and  C9_41
REMARK   16  A    between atoms: C3_61  and  O3_70
REMARK   17  A    between atoms: C4_62  and  O4_71
REMARK   18  A    between atoms: C5_63  and  C6_64
REMARK   19  A    between atoms: C6_64  and  O6_72
REMARK   20  A    between atoms: C8_66  and  N7_69
REMARK   21  A    between atoms: C9_67  and  N7_69
REMARK                            x       y       z     vdW  Elec       q    Type
REMARK                         _______ _______ _______ _____ _____    ______ ____
ROOT
ATOM      1  C1  NAA A   1      -0.932  50.038  67.267  0.00  0.00    +0.273 C 
ATOM      2  C2  NAA A   1      -0.948  48.975  66.128  0.00  0.00    +0.161 C 
ATOM      3  C3  NAA A   1      -2.235  49.132  65.276  0.00  0.00    +0.171 C 
ATOM      4  C4  NAA A   1      -3.485  49.133  66.284  0.00  0.00    +0.183 C 
ATOM      5  C5  NAA A   1      -3.323  50.289  67.330  0.00  0.00    +0.178 C 
ATOM      6  O5  NAA A   1      -2.128  50.013  68.056  0.00  0.00    -0.342 OA
ENDROOT
BRANCH   2   9
ATOM      7  C7  NAA A   1       0.923  48.314  64.691  0.00  0.00    +0.209 C 
ATOM      8  C8  NAA A   1       2.206  48.720  63.978  0.00  0.00    +0.111 C 
ATOM      9  N2  NAA A   1       0.305  49.255  65.372  0.00  0.00    -0.305 N 
ATOM     10  O7  NAA A   1       0.494  47.159  64.626  0.00  0.00    -0.278 OA
ATOM     11  HN2 NAA A   1       0.689  50.190  65.383  0.00  0.00    +0.150 HD
ENDBRANCH   2   9
BRANCH   3  12
ATOM     12  O3  NAA A   1      -2.187  50.346  64.527  0.00  0.00    -0.388 OA
ATOM     13  HO3 NAA A   1      -3.029  50.801  64.599  0.00  0.00    +0.211 HD
ENDBRANCH   3  12
BRANCH   4  14
ATOM     14  O4  NAA A   1      -4.736  49.285  65.640  0.00  0.00    -0.342 OA
BRANCH  14  15
ATOM     15  C1  NA1 A   2      -4.972  48.412  64.556  0.00  0.00    +0.274 C 
ATOM     16  C2  NA1 A   2      -6.294  47.641  64.824  0.00  0.00    +0.161 C 
ATOM     17  C3  NA1 A   2      -6.936  47.059  63.567  0.00  0.00    +0.171 C 
ATOM     18  C4  NA1 A   2      -6.980  48.146  62.468  0.00  0.00    +0.176 C 
ATOM     19  C5  NA1 A   2      -5.504  48.672  62.196  0.00  0.00    +0.178 C 
ATOM     20  O5  NA1 A   2      -5.129  49.341  63.447  0.00  0.00    -0.342 OA
BRANCH  16  23
ATOM     21  C7  NA1 A   2      -6.360  46.608  67.079  0.00  0.00    +0.209 C 
ATOM     22  C8  NA1 A   2      -5.895  45.360  67.826  0.00  0.00    +0.111 C 
ATOM     23  N2  NA1 A   2      -6.011  46.606  65.811  0.00  0.00    -0.305 N 
ATOM     24  O7  NA1 A   2      -6.976  47.498  67.621  0.00  0.00    -0.278 OA
ATOM     25  HN2 NA1 A   2      -5.492  45.802  65.487  0.00  0.00    +0.150 HD
ENDBRANCH  16  23
BRANCH  18  26
ATOM     26  O4  NA1 A   2      -7.557  47.569  61.327  0.00  0.00    -0.388 OA
ATOM     27  HO4 NA1 A   2      -8.025  46.768  61.575  0.00  0.00    +0.211 HD
ENDBRANCH  18  26
BRANCH  17  28
ATOM     28  O3  NA1 A   2      -6.167  45.951  63.135  0.00  0.00    -0.388 OA
ATOM     29  HO3 NA1 A   2      -6.642  45.138  63.324  0.00  0.00    +0.211 HD
ENDBRANCH  17  28
BRANCH  19  30
ATOM     30  C6  NA1 A   2      -5.413  49.709  61.026  0.00  0.00    +0.194 C 
BRANCH  30  31
ATOM     31  O6  NA1 A   2      -6.681  50.348  60.728  0.00  0.00    -0.382 OA
ATOM     32  C9  NA1 A   2      -6.665  51.687  60.565  0.00  0.00    +0.195 C 
ENDBRANCH  30  31
ENDBRANCH  19  30
ENDBRANCH  14  15
ENDBRANCH   4  14
BRANCH   1  33
ATOM     33  O4  AMI A   3       0.163  49.731  68.102  0.00  0.00    -0.344 OA
BRANCH  33  37
ATOM     34  C1  AMI A   3       0.626  47.448  70.906  0.00  0.00    +0.164 C 
ATOM     35  C2  AMI A   3       1.352  46.661  69.795  0.00  0.00    +0.171 C 
ATOM     36  C3  AMI A   3       1.438  47.642  68.626  0.00  0.00    +0.171 C 
ATOM     37  C4  AMI A   3       0.152  48.477  68.762  0.00  0.00    +0.160 C 
ATOM     38  C5  AMI A   3       0.243  48.781  70.255  0.00  0.00    +0.078 C 
ATOM     39  C7  AMI A   3       2.748  46.903  71.558  0.00  0.00    +0.229 C 
ATOM     40  C8  AMI A   3       5.126  46.238  71.873  0.00  0.00    +0.133 C 
ATOM     41  C9  AMI A   3       3.858  47.411  73.698  0.00  0.00    +0.133 C 
ATOM     42  N2  AMI A   3       2.648  46.387  70.328  0.00  0.00    -0.240 NA
ATOM     43  N7  AMI A   3       3.889  46.939  72.290  0.00  0.00    -0.302 N 
ATOM     44  O7  AMI A   3       1.621  47.588  71.950  0.00  0.00    -0.311 OA
BRANCH  36  45
ATOM     45  O3  AMI A   3       1.438  46.864  67.428  0.00  0.00    -0.388 OA
ATOM     46  HO3 AMI A   3       0.594  46.963  66.982  0.00  0.00    +0.211 HD
ENDBRANCH  36  45
BRANCH  38  47
ATOM     47  C6  AMI A   3      -1.079  49.388  70.867  0.00  0.00    +0.165 C 
BRANCH  47  48
ATOM     48  O6  AMI A   3      -2.232  48.642  70.397  0.00  0.00    -0.396 OA
ATOM     49  HO6 AMI A   3      -2.991  49.227  70.340  0.00  0.00    +0.210 HD
ENDBRANCH  47  48
ENDBRANCH  38  47
ENDBRANCH  33  37
ENDBRANCH   1  33
BRANCH   5  50
ATOM     50  C6  NAA A   1      -4.454  50.342  68.348  0.00  0.00    +0.191 C 
BRANCH  50  51
ATOM     51  O6  NAA A   1      -4.669  48.991  68.842  0.00  0.00    -0.394 OA
ATOM     52  HO6 NAA A   1      -3.983  48.413  68.499  0.00  0.00    +0.210 HD
ENDBRANCH  50  51
ENDBRANCH   5  50
TORSDOF 16
ENDMDL
MODEL 3
REMARK VINA RESULT:      -8.3      3.081      9.164
REMARK  Name = 3fy1
REMARK  21 active torsions:
REMARK  status: ('A' for Active; 'I' for Inactive)
REMARK    1  A    between atoms: C1_1  and  O4_71
REMARK    2  A    between atoms: C2_2  and  N2_9
REMARK    3  A    between atoms: C3_3  and  O3_10
REMARK    4  A    between atoms: C4_4  and  O4_11
REMARK    5  A    between atoms: C5_5  and  C6_6
REMARK    6  A    between atoms: C6_6  and  O6_13
REMARK    7  A    between atoms: C7_7  and  C8_8
REMARK    8  A    between atoms: O4_11  and  C1_28
REMARK    9  A    between atoms: C2_29  and  N2_36
REMARK   10  A    between atoms: C3_30  and  O3_37
REMARK   11  A    between atoms: C4_31  and  O4_38
REMARK   12  A    between atoms: C5_32  and  C6_33
REMARK   13  A    between atoms: C6_33  and  O6_40
REMARK   14  A    between atoms: C7_34  and  C8_35
REMARK   15  A    between atoms: O6_40  and  C9_41
REMARK   16  A    between atoms: C3_61  and  O3_70
REMARK   17  A    between atoms: C4_62  and  O4_71
REMARK   18  A    between atoms: C5_63  and  C6_64
REMARK   19  A    between atoms: C6_64  and  O6_72
REMARK   20  A    between atoms: C8_66  and  N7_69
REMARK   21  A    between atoms: C9_67  and  N7_69
REMARK                            x       y       z     vdW  Elec       q    Type
REMARK                         _______ _______ _______ _____ _____    ______ ____
ROOT
ATOM      1  C1  NAA A   1       1.631  49.940  63.295  0.00  0.00    +0.273 C 
ATOM      2  C2  NAA A   1       0.222  50.507  62.947  0.00  0.00    +0.161 C 
ATOM      3  C3  NAA A   1      -0.453  51.070  64.224  0.00  0.00    +0.171 C 
ATOM      4  C4  NAA A   1      -0.390  49.927  65.349  0.00  0.00    +0.183 C 
ATOM      5  C5  NAA A   1       1.100  49.511  65.601  0.00  0.00    +0.178 C 
ATOM      6  O5  NAA A   1       1.589  48.990  64.367  0.00  0.00    -0.342 OA
ENDROOT
BRANCH   2   9
ATOM      7  C7  NAA A   1      -0.127  51.565  60.765  0.00  0.00    +0.209 C 
ATOM      8  C8  NAA A   1       0.271  52.663  59.787  0.00  0.00    +0.111 C 
ATOM      9  N2  NAA A   1       0.509  51.545  61.917  0.00  0.00    -0.305 N 
ATOM     10  O7  NAA A   1      -1.002  50.744  60.482  0.00  0.00    -0.278 OA
ATOM     11  HN2 NAA A   1       1.208  52.249  62.107  0.00  0.00    +0.150 HD
ENDBRANCH   2   9
BRANCH   3  12
ATOM     12  O3  NAA A   1       0.223  52.249  64.662  0.00  0.00    -0.388 OA
ATOM     13  HO3 NAA A   1       0.349  52.842  63.917  0.00  0.00    +0.211 HD
ENDBRANCH   3  12
BRANCH   4  14
ATOM     14  O4  NAA A   1      -0.962  50.311  66.585  0.00  0.00    -0.342 OA
BRANCH  14  15
ATOM     15  C1  NA1 A   2      -2.034  49.511  67.034  0.00  0.00    +0.274 C 
ATOM     16  C2  NA1 A   2      -2.161  49.677  68.574  0.00  0.00    +0.161 C 
ATOM     17  C3  NA1 A   2      -3.533  49.299  69.126  0.00  0.00    +0.171 C 
ATOM     18  C4  NA1 A   2      -4.630  49.969  68.266  0.00  0.00    +0.176 C 
ATOM     19  C5  NA1 A   2      -4.451  49.519  66.751  0.00  0.00    +0.178 C 
ATOM     20  O5  NA1 A   2      -3.170  50.113  66.353  0.00  0.00    -0.342 OA
BRANCH  16  23
ATOM     21  C7  NA1 A   2      -0.614  49.040  70.407  0.00  0.00    +0.209 C 
ATOM     22  C8  NA1 A   2       0.499  48.045  70.728  0.00  0.00    +0.111 C 
ATOM     23  N2  NA1 A   2      -1.099  48.893  69.194  0.00  0.00    -0.305 N 
ATOM     24  O7  NA1 A   2      -0.987  49.877  71.199  0.00  0.00    -0.278 OA
ATOM     25  HN2 NA1 A   2      -0.692  48.160  68.631  0.00  0.00    +0.150 HD
ENDBRANCH  16  23
BRANCH  18  26
ATOM     26  O4  NA1 A   2      -5.872  49.584  68.791  0.00  0.00    -0.388 OA
ATOM     27  HO4 NA1 A   2      -6.565  49.789  68.158  0.00  0.00    +0.211 HD
ENDBRANCH  18  26
BRANCH  17  28
ATOM     28  O3  NA1 A   2      -3.667  47.889  69.086  0.00  0.00    -0.388 OA
ATOM     29  HO3 NA1 A   2      -4.387  47.652  68.497  0.00  0.00    +0.211 HD
ENDBRANCH  17  28
BRANCH  19  30
ATOM     30  C6  NA1 A   2      -5.572  50.059  65.798  0.00  0.00    +0.194 C 
BRANCH  30  31
ATOM     31  O6  NA1 A   2      -6.869  49.459  66.045  0.00  0.00    -0.382 OA
ATOM     32  C9  NA1 A   2      -7.935  50.286  66.034  0.00  0.00    +0.195 C 
ENDBRANCH  30  31
ENDBRANCH  19  30
ENDBRANCH  14  15
ENDBRANCH   4  14
BRANCH   1  33
ATOM     33  O4  AMI A   3       2.112  49.291  62.139  0.00  0.00    -0.344 OA
BRANCH  33  37
ATOM     34  C1  AMI A   3       5.217  47.872  60.861  0.00  0.00    +0.164 C 
ATOM     35  C2  AMI A   3       4.748  46.719  61.772  0.00  0.00    +0.171 C 
ATOM     36  C3  AMI A   3       3.323  47.101  62.171  0.00  0.00    +0.171 C 
ATOM     37  C4  AMI A   3       3.366  48.639  62.228  0.00  0.00    +0.160 C 
ATOM     38  C5  AMI A   3       4.072  48.889  60.898  0.00  0.00    +0.078 C 
ATOM     39  C7  AMI A   3       5.145  45.904  59.699  0.00  0.00    +0.229 C 
ATOM     40  C8  AMI A   3       4.839  43.627  58.743  0.00  0.00    +0.133 C 
ATOM     41  C9  AMI A   3       5.719  45.513  57.335  0.00  0.00    +0.133 C 
ATOM     42  N2  AMI A   3       4.750  45.564  60.931  0.00  0.00    -0.240 NA
ATOM     43  N7  AMI A   3       5.130  45.076  58.627  0.00  0.00    -0.302 N 
ATOM     44  O7  AMI A   3       5.388  47.252  59.563  0.00  0.00    -0.311 OA
BRANCH  36  45
ATOM     45  O3  AMI A   3       3.083  46.531  63.458  0.00  0.00    -0.388 OA
ATOM     46  HO3 AMI A   3       2.188  46.737  63.738  0.00  0.00    +0.211 HD
ENDBRANCH  36  45
BRANCH  38  47
ATOM     47  C6  AMI A   3       4.582  50.372  60.713  0.00  0.00    +0.165 C 
BRANCH  47  48
ATOM     48  O6  AMI A   3       3.453  51.281  60.648  0.00  0.00    -0.396 OA
ATOM     49  HO6 AMI A   3       3.292  51.655  61.518  0.00  0.00    +0.210 HD
ENDBRANCH  47  48
ENDBRANCH  38  47
ENDBRANCH  33  37
ENDBRANCH   1  33
BRANCH   5  50
ATOM     50  C6  NAA A   1       1.249  48.403  66.636  0.00  0.00    +0.191 C 
BRANCH  50  51
ATOM     51  O6  NAA A   1       1.536  47.168  65.922  0.00  0.00    -0.394 OA
ATOM     52  HO6 NAA A   1       2.422  46.870  66.142  0.00  0.00    +0.210 HD
ENDBRANCH  50  51
ENDBRANCH   5  50
TORSDOF 16
ENDMDL
MODEL 4
REMARK VINA RESULT:      -8.1      4.443      7.891
REMARK  Name = 3fy1
REMARK  21 active torsions:
REMARK  status: ('A' for Active; 'I' for Inactive)
REMARK    1  A    between atoms: C1_1  and  O4_71
REMARK    2  A    between atoms: C2_2  and  N2_9
REMARK    3  A    between atoms: C3_3  and  O3_10
REMARK    4  A    between atoms: C4_4  and  O4_11
REMARK    5  A    between atoms: C5_5  and  C6_6
REMARK    6  A    between atoms: C6_6  and  O6_13
REMARK    7  A    between atoms: C7_7  and  C8_8
REMARK    8  A    between atoms: O4_11  and  C1_28
REMARK    9  A    between atoms: C2_29  and  N2_36
REMARK   10  A    between atoms: C3_30  and  O3_37
REMARK   11  A    between atoms: C4_31  and  O4_38
REMARK   12  A    between atoms: C5_32  and  C6_33
REMARK   13  A    between atoms: C6_33  and  O6_40
REMARK   14  A    between atoms: C7_34  and  C8_35
REMARK   15  A    between atoms: O6_40  and  C9_41
REMARK   16  A    between atoms: C3_61  and  O3_70
REMARK   17  A    between atoms: C4_62  and  O4_71
REMARK   18  A    between atoms: C5_63  and  C6_64
REMARK   19  A    between atoms: C6_64  and  O6_72
REMARK   20  A    between atoms: C8_66  and  N7_69
REMARK   21  A    between atoms: C9_67  and  N7_69
REMARK                            x       y       z     vdW  Elec       q    Type
REMARK                         _______ _______ _______ _____ _____    ______ ____
ROOT
ATOM      1  C1  NAA A   1      -0.908  50.124  67.195  0.00  0.00    +0.273 C 
ATOM      2  C2  NAA A   1      -0.941  49.019  66.098  0.00  0.00    +0.161 C 
ATOM      3  C3  NAA A   1      -2.203  49.188  65.214  0.00  0.00    +0.171 C 
ATOM      4  C4  NAA A   1      -3.472  49.274  66.193  0.00  0.00    +0.183 C 
ATOM      5  C5  NAA A   1      -3.289  50.463  67.197  0.00  0.00    +0.178 C 
ATOM      6  O5  NAA A   1      -2.119  50.173  67.960  0.00  0.00    -0.342 OA
ENDROOT
BRANCH   2   9
ATOM      7  C7  NAA A   1       0.906  48.248  64.684  0.00  0.00    +0.209 C 
ATOM      8  C8  NAA A   1       2.220  48.578  63.988  0.00  0.00    +0.111 C 
ATOM      9  N2  NAA A   1       0.337  49.224  65.359  0.00  0.00    -0.305 N 
ATOM     10  O7  NAA A   1       0.409  47.122  64.610  0.00  0.00    -0.278 OA
ATOM     11  HN2 NAA A   1       0.777  50.133  65.377  0.00  0.00    +0.150 HD
ENDBRANCH   2   9
BRANCH   3  12
ATOM     12  O3  NAA A   1      -2.096  50.369  64.419  0.00  0.00    -0.388 OA
ATOM     13  HO3 NAA A   1      -2.586  51.082  64.836  0.00  0.00    +0.211 HD
ENDBRANCH   3  12
BRANCH   4  14
ATOM     14  O4  NAA A   1      -4.703  49.445  65.517  0.00  0.00    -0.342 OA
BRANCH  14  15
ATOM     15  C1  NA1 A   2      -5.780  48.677  66.009  0.00  0.00    +0.274 C 
ATOM     16  C2  NA1 A   2      -6.579  48.116  64.800  0.00  0.00    +0.161 C 
ATOM     17  C3  NA1 A   2      -7.433  46.896  65.135  0.00  0.00    +0.171 C 
ATOM     18  C4  NA1 A   2      -6.580  45.881  65.930  0.00  0.00    +0.176 C 
ATOM     19  C5  NA1 A   2      -6.011  46.588  67.236  0.00  0.00    +0.178 C 
ATOM     20  O5  NA1 A   2      -5.092  47.607  66.717  0.00  0.00    -0.342 OA
BRANCH  16  23
ATOM     21  C7  NA1 A   2      -7.749  49.369  63.007  0.00  0.00    +0.209 C 
ATOM     22  C8  NA1 A   2      -8.592  50.625  62.793  0.00  0.00    +0.111 C 
ATOM     23  N2  NA1 A   2      -7.385  49.204  64.259  0.00  0.00    -0.305 N 
ATOM     24  O7  NA1 A   2      -7.450  48.625  62.100  0.00  0.00    -0.278 OA
ATOM     25  HN2 NA1 A   2      -7.698  49.904  64.916  0.00  0.00    +0.150 HD
ENDBRANCH  16  23
BRANCH  18  26
ATOM     26  O4  NA1 A   2      -7.402  44.786  66.235  0.00  0.00    -0.388 OA
ATOM     27  HO4 NA1 A   2      -8.157  45.084  66.747  0.00  0.00    +0.211 HD
ENDBRANCH  18  26
BRANCH  17  28
ATOM     28  O3  NA1 A   2      -8.545  47.317  65.905  0.00  0.00    -0.388 OA
ATOM     29  HO3 NA1 A   2      -8.912  48.119  65.526  0.00  0.00    +0.211 HD
ENDBRANCH  17  28
BRANCH  19  30
ATOM     30  C6  NA1 A   2      -5.210  45.623  68.175  0.00  0.00    +0.194 C 
BRANCH  30  31
ATOM     31  O6  NA1 A   2      -5.997  44.499  68.645  0.00  0.00    -0.382 OA
ATOM     32  C9  NA1 A   2      -5.715  44.030  69.878  0.00  0.00    +0.195 C 
ENDBRANCH  30  31
ENDBRANCH  19  30
ENDBRANCH  14  15
ENDBRANCH   4  14
BRANCH   1  33
ATOM     33  O4  AMI A   3       0.157  49.811  68.065  0.00  0.00    -0.344 OA
BRANCH  33  37
ATOM     34  C1  AMI A   3       0.568  47.493  70.849  0.00  0.00    +0.164 C 
ATOM     35  C2  AMI A   3       1.298  46.712  69.738  0.00  0.00    +0.171 C 
ATOM     36  C3  AMI A   3       1.406  47.704  68.580  0.00  0.00    +0.171 C 
ATOM     37  C4  AMI A   3       0.128  48.550  68.711  0.00  0.00    +0.160 C 
ATOM     38  C5  AMI A   3       0.205  48.837  70.208  0.00  0.00    +0.078 C 
ATOM     39  C7  AMI A   3       2.677  46.921  71.518  0.00  0.00    +0.229 C 
ATOM     40  C8  AMI A   3       5.044  46.229  71.853  0.00  0.00    +0.133 C 
ATOM     41  C9  AMI A   3       3.768  47.394  73.676  0.00  0.00    +0.133 C 
ATOM     42  N2  AMI A   3       2.585  46.419  70.282  0.00  0.00    -0.240 NA
ATOM     43  N7  AMI A   3       3.809  46.938  72.263  0.00  0.00    -0.302 N 
ATOM     44  O7  AMI A   3       1.552  47.612  71.906  0.00  0.00    -0.311 OA
BRANCH  36  45
ATOM     45  O3  AMI A   3       1.412  46.938  67.374  0.00  0.00    -0.388 OA
ATOM     46  HO3 AMI A   3       2.286  46.969  66.979  0.00  0.00    +0.211 HD
ENDBRANCH  36  45
BRANCH  38  47
ATOM     47  C6  AMI A   3      -1.118  49.451  70.812  0.00  0.00    +0.165 C 
BRANCH  47  48
ATOM     48  O6  AMI A   3      -2.271  48.702  70.345  0.00  0.00    -0.396 OA
ATOM     49  HO6 AMI A   3      -2.195  47.787  70.630  0.00  0.00    +0.210 HD
ENDBRANCH  47  48
ENDBRANCH  38  47
ENDBRANCH  33  37
ENDBRANCH   1  33
BRANCH   5  50
ATOM     50  C6  NAA A   1      -4.438  50.597  68.188  0.00  0.00    +0.191 C 
BRANCH  50  51
ATOM     51  O6  NAA A   1      -4.494  49.370  68.967  0.00  0.00    -0.394 OA
ATOM     52  HO6 NAA A   1      -3.602  49.081  69.175  0.00  0.00    +0.210 HD
ENDBRANCH  50  51
ENDBRANCH   5  50
TORSDOF 16
ENDMDL
MODEL 5
REMARK VINA RESULT:      -7.8      3.143      9.478
REMARK  Name = 3fy1
REMARK  21 active torsions:
REMARK  status: ('A' for Active; 'I' for Inactive)
REMARK    1  A    between atoms: C1_1  and  O4_71
REMARK    2  A    between atoms: C2_2  and  N2_9
REMARK    3  A    between atoms: C3_3  and  O3_10
REMARK    4  A    between atoms: C4_4  and  O4_11
REMARK    5  A    between atoms: C5_5  and  C6_6
REMARK    6  A    between atoms: C6_6  and  O6_13
REMARK    7  A    between atoms: C7_7  and  C8_8
REMARK    8  A    between atoms: O4_11  and  C1_28
REMARK    9  A    between atoms: C2_29  and  N2_36
REMARK   10  A    between atoms: C3_30  and  O3_37
REMARK   11  A    between atoms: C4_31  and  O4_38
REMARK   12  A    between atoms: C5_32  and  C6_33
REMARK   13  A    between atoms: C6_33  and  O6_40
REMARK   14  A    between atoms: C7_34  and  C8_35
REMARK   15  A    between atoms: O6_40  and  C9_41
REMARK   16  A    between atoms: C3_61  and  O3_70
REMARK   17  A    between atoms: C4_62  and  O4_71
REMARK   18  A    between atoms: C5_63  and  C6_64
REMARK   19  A    between atoms: C6_64  and  O6_72
REMARK   20  A    between atoms: C8_66  and  N7_69
REMARK   21  A    between atoms: C9_67  and  N7_69
REMARK                            x       y       z     vdW  Elec       q    Type
REMARK                         _______ _______ _______ _____ _____    ______ ____
ROOT
ATOM      1  C1  NAA A   1       0.447  50.332  63.783  0.00  0.00    +0.273 C 
ATOM      2  C2  NAA A   1      -1.110  50.338  63.747  0.00  0.00    +0.161 C 
ATOM      3  C3  NAA A   1      -1.672  50.257  65.190  0.00  0.00    +0.171 C 
ATOM      4  C4  NAA A   1      -0.968  49.010  65.916  0.00  0.00    +0.183 C 
ATOM      5  C5  NAA A   1       0.588  49.194  65.896  0.00  0.00    +0.178 C 
ATOM      6  O5  NAA A   1       0.975  49.225  64.524  0.00  0.00    -0.342 OA
ENDROOT
BRANCH   2   9
ATOM      7  C7  NAA A   1      -2.300  51.650  62.055  0.00  0.00    +0.209 C 
ATOM      8  C8  NAA A   1      -2.535  53.010  61.409  0.00  0.00    +0.111 C 
ATOM      9  N2  NAA A   1      -1.438  51.612  63.049  0.00  0.00    -0.305 N 
ATOM     10  O7  NAA A   1      -2.894  50.644  61.661  0.00  0.00    -0.278 OA
ATOM     11  HN2 NAA A   1      -0.988  52.467  63.345  0.00  0.00    +0.150 HD
ENDBRANCH   2   9
BRANCH   3  12
ATOM     12  O3  NAA A   1      -1.403  51.470  65.894  0.00  0.00    -0.388 OA
ATOM     13  HO3 NAA A   1      -0.835  52.031  65.360  0.00  0.00    +0.211 HD
ENDBRANCH   3  12
BRANCH   4  14
ATOM     14  O4  NAA A   1      -1.380  48.824  67.256  0.00  0.00    -0.342 OA
BRANCH  14  15
ATOM     15  C1  NA1 A   2      -1.830  47.527  67.580  0.00  0.00    +0.274 C 
ATOM     16  C2  NA1 A   2      -1.666  47.317  69.112  0.00  0.00    +0.161 C 
ATOM     17  C3  NA1 A   2      -2.544  46.206  69.681  0.00  0.00    +0.171 C 
ATOM     18  C4  NA1 A   2      -3.989  46.380  69.158  0.00  0.00    +0.176 C 
ATOM     19  C5  NA1 A   2      -3.971  46.372  67.567  0.00  0.00    +0.178 C 
ATOM     20  O5  NA1 A   2      -3.236  47.592  67.213  0.00  0.00    -0.342 OA
BRANCH  16  23
ATOM     21  C7  NA1 A   2       0.531  47.768  70.171  0.00  0.00    +0.209 C 
ATOM     22  C8  NA1 A   2       1.961  47.234  70.212  0.00  0.00    +0.111 C 
ATOM     23  N2  NA1 A   2      -0.253  47.074  69.377  0.00  0.00    -0.305 N 
ATOM     24  O7  NA1 A   2       0.183  48.740  70.804  0.00  0.00    -0.278 OA
ATOM     25  HN2 NA1 A   2       0.167  46.288  68.902  0.00  0.00    +0.150 HD
ENDBRANCH  16  23
BRANCH  18  26
ATOM     26  O4  NA1 A   2      -4.759  45.334  69.685  0.00  0.00    -0.388 OA
ATOM     27  HO4 NA1 A   2      -5.671  45.620  69.774  0.00  0.00    +0.211 HD
ENDBRANCH  18  26
BRANCH  17  28
ATOM     28  O3  NA1 A   2      -2.019  44.956  69.272  0.00  0.00    -0.388 OA
ATOM     29  HO3 NA1 A   2      -1.770  44.444  70.046  0.00  0.00    +0.211 HD
ENDBRANCH  17  28
BRANCH  19  30
ATOM     30  C6  NA1 A   2      -5.398  46.442  66.923  0.00  0.00    +0.194 C 
BRANCH  30  31
ATOM     31  O6  NA1 A   2      -5.368  46.697  65.495  0.00  0.00    -0.382 OA
ATOM     32  C9  NA1 A   2      -5.984  47.817  65.063  0.00  0.00    +0.195 C 
ENDBRANCH  30  31
ENDBRANCH  19  30
ENDBRANCH  14  15
ENDBRANCH   4  14
BRANCH   1  33
ATOM     33  O4  AMI A   3       0.890  50.228  62.447  0.00  0.00    -0.344 OA
BRANCH  33  37
ATOM     34  C1  AMI A   3       3.853  50.775  60.395  0.00  0.00    +0.164 C 
ATOM     35  C2  AMI A   3       4.344  49.604  61.272  0.00  0.00    +0.171 C 
ATOM     36  C3  AMI A   3       3.092  49.124  62.005  0.00  0.00    +0.171 C 
ATOM     37  C4  AMI A   3       2.272  50.412  62.199  0.00  0.00    +0.160 C 
ATOM     38  C5  AMI A   3       2.380  50.958  60.777  0.00  0.00    +0.078 C 
ATOM     39  C7  AMI A   3       4.636  49.066  59.094  0.00  0.00    +0.229 C 
ATOM     40  C8  AMI A   3       5.456  46.979  58.013  0.00  0.00    +0.133 C 
ATOM     41  C9  AMI A   3       4.761  48.962  56.636  0.00  0.00    +0.133 C 
ATOM     42  N2  AMI A   3       4.801  48.620  60.344  0.00  0.00    -0.240 NA
ATOM     43  N7  AMI A   3       4.841  48.328  57.976  0.00  0.00    -0.302 N 
ATOM     44  O7  AMI A   3       4.036  50.304  59.038  0.00  0.00    -0.311 OA
BRANCH  36  45
ATOM     45  O3  AMI A   3       3.523  48.580  63.254  0.00  0.00    -0.388 OA
ATOM     46  HO3 AMI A   3       4.247  49.106  63.599  0.00  0.00    +0.211 HD
ENDBRANCH  36  45
BRANCH  38  47
ATOM     47  C6  AMI A   3       1.906  52.457  60.628  0.00  0.00    +0.165 C 
BRANCH  47  48
ATOM     48  O6  AMI A   3       1.080  52.831  61.762  0.00  0.00    -0.396 OA
ATOM     49  HO6 AMI A   3       1.615  53.300  62.407  0.00  0.00    +0.210 HD
ENDBRANCH  47  48
ENDBRANCH  38  47
ENDBRANCH  33  37
ENDBRANCH   1  33
BRANCH   5  50
ATOM     50  C6  NAA A   1       1.339  48.034  66.538  0.00  0.00    +0.191 C 
BRANCH  50  51
ATOM     51  O6  NAA A   1       1.786  47.153  65.471  0.00  0.00    -0.394 OA
ATOM     52  HO6 NAA A   1       1.387  46.287  65.582  0.00  0.00    +0.210 HD
ENDBRANCH  50  51
ENDBRANCH   5  50
TORSDOF 16
ENDMDL
MODEL 6
REMARK VINA RESULT:      -7.7      3.224      9.096
REMARK  Name = 3fy1
REMARK  21 active torsions:
REMARK  status: ('A' for Active; 'I' for Inactive)
REMARK    1  A    between atoms: C1_1  and  O4_71
REMARK    2  A    between atoms: C2_2  and  N2_9
REMARK    3  A    between atoms: C3_3  and  O3_10
REMARK    4  A    between atoms: C4_4  and  O4_11
REMARK    5  A    between atoms: C5_5  and  C6_6
REMARK    6  A    between atoms: C6_6  and  O6_13
REMARK    7  A    between atoms: C7_7  and  C8_8
REMARK    8  A    between atoms: O4_11  and  C1_28
REMARK    9  A    between atoms: C2_29  and  N2_36
REMARK   10  A    between atoms: C3_30  and  O3_37
REMARK   11  A    between atoms: C4_31  and  O4_38
REMARK   12  A    between atoms: C5_32  and  C6_33
REMARK   13  A    between atoms: C6_33  and  O6_40
REMARK   14  A    between atoms: C7_34  and  C8_35
REMARK   15  A    between atoms: O6_40  and  C9_41
REMARK   16  A    between atoms: C3_61  and  O3_70
REMARK   17  A    between atoms: C4_62  and  O4_71
REMARK   18  A    between atoms: C5_63  and  C6_64
REMARK   19  A    between atoms: C6_64  and  O6_72
REMARK   20  A    between atoms: C8_66  and  N7_69
REMARK   21  A    between atoms: C9_67  and  N7_69
REMARK                            x       y       z     vdW  Elec       q    Type
REMARK                         _______ _______ _______ _____ _____    ______ ____
ROOT
ATOM      1  C1  NAA A   1      -1.662  50.775  64.078  0.00  0.00    +0.273 C 
ATOM      2  C2  NAA A   1      -2.708  49.620  64.102  0.00  0.00    +0.161 C 
ATOM      3  C3  NAA A   1      -3.592  49.734  65.370  0.00  0.00    +0.171 C 
ATOM      4  C4  NAA A   1      -2.612  49.850  66.636  0.00  0.00    +0.183 C 
ATOM      5  C5  NAA A   1      -1.664  51.087  66.462  0.00  0.00    +0.178 C 
ATOM      6  O5  NAA A   1      -0.895  50.845  65.286  0.00  0.00    -0.342 OA
ENDROOT
BRANCH   2   9
ATOM      7  C7  NAA A   1      -4.104  48.809  62.259  0.00  0.00    +0.209 C 
ATOM      8  C8  NAA A   1      -4.819  49.121  60.951  0.00  0.00    +0.111 C 
ATOM      9  N2  NAA A   1      -3.461  49.806  62.830  0.00  0.00    -0.305 N 
ATOM     10  O7  NAA A   1      -4.134  47.678  62.750  0.00  0.00    -0.278 OA
ATOM     11  HN2 NAA A   1      -3.479  50.718  62.396  0.00  0.00    +0.150 HD
ENDBRANCH   2   9
BRANCH   3  12
ATOM     12  O3  NAA A   1      -4.440  50.878  65.280  0.00  0.00    -0.388 OA
ATOM     13  HO3 NAA A   1      -5.358  50.597  65.258  0.00  0.00    +0.211 HD
ENDBRANCH   3  12
BRANCH   4  14
ATOM     14  O4  NAA A   1      -3.289  49.976  67.872  0.00  0.00    -0.342 OA
BRANCH  14  15
ATOM     15  C1  NA1 A   2      -3.118  48.902  68.771  0.00  0.00    +0.274 C 
ATOM     16  C2  NA1 A   2      -3.422  47.576  68.020  0.00  0.00    +0.161 C 
ATOM     17  C3  NA1 A   2      -2.812  46.340  68.675  0.00  0.00    +0.171 C 
ATOM     18  C4  NA1 A   2      -1.328  46.621  69.009  0.00  0.00    +0.176 C 
ATOM     19  C5  NA1 A   2      -1.239  47.901  69.949  0.00  0.00    +0.178 C 
ATOM     20  O5  NA1 A   2      -1.703  49.001  69.096  0.00  0.00    -0.342 OA
BRANCH  16  23
ATOM     21  C7  NA1 A   2      -5.539  46.985  66.868  0.00  0.00    +0.209 C 
ATOM     22  C8  NA1 A   2      -7.051  47.012  67.078  0.00  0.00    +0.111 C 
ATOM     23  N2  NA1 A   2      -4.870  47.459  67.896  0.00  0.00    -0.305 N 
ATOM     24  O7  NA1 A   2      -5.031  46.577  65.847  0.00  0.00    -0.278 OA
ATOM     25  HN2 NA1 A   2      -5.417  47.775  68.684  0.00  0.00    +0.150 HD
ENDBRANCH  16  23
BRANCH  18  26
ATOM     26  O4  NA1 A   2      -0.809  45.473  69.624  0.00  0.00    -0.388 OA
ATOM     27  HO4 NA1 A   2      -1.430  44.747  69.525  0.00  0.00    +0.211 HD
ENDBRANCH  18  26
BRANCH  17  28
ATOM     28  O3  NA1 A   2      -3.537  46.047  69.856  0.00  0.00    -0.388 OA
ATOM     29  HO3 NA1 A   2      -3.960  46.846  70.179  0.00  0.00    +0.211 HD
ENDBRANCH  17  28
BRANCH  19  30
ATOM     30  C6  NA1 A   2       0.215  48.222  70.436  0.00  0.00    +0.194 C 
BRANCH  30  31
ATOM     31  O6  NA1 A   2       1.242  47.712  69.547  0.00  0.00    -0.382 OA
ATOM     32  C9  NA1 A   2       2.281  47.071  70.120  0.00  0.00    +0.195 C 
ENDBRANCH  30  31
ENDBRANCH  19  30
ENDBRANCH  14  15
ENDBRANCH   4  14
BRANCH   1  33
ATOM     33  O4  AMI A   3      -0.785  50.514  63.005  0.00  0.00    -0.344 OA
BRANCH  33  37
ATOM     34  C1  AMI A   3       2.762  50.207  62.218  0.00  0.00    +0.164 C 
ATOM     35  C2  AMI A   3       2.649  49.178  63.361  0.00  0.00    +0.171 C 
ATOM     36  C3  AMI A   3       1.146  49.039  63.604  0.00  0.00    +0.171 C 
ATOM     37  C4  AMI A   3       0.601  50.444  63.293  0.00  0.00    +0.160 C 
ATOM     38  C5  AMI A   3       1.324  50.673  61.968  0.00  0.00    +0.078 C 
ATOM     39  C7  AMI A   3       3.584  48.178  61.560  0.00  0.00    +0.229 C 
ATOM     40  C8  AMI A   3       4.281  45.822  61.166  0.00  0.00    +0.133 C 
ATOM     41  C9  AMI A   3       4.559  47.568  59.381  0.00  0.00    +0.133 C 
ATOM     42  N2  AMI A   3       3.192  47.972  62.822  0.00  0.00    -0.240 NA
ATOM     43  N7  AMI A   3       4.018  47.209  60.717  0.00  0.00    -0.302 N 
ATOM     44  O7  AMI A   3       3.317  49.453  61.113  0.00  0.00    -0.311 OA
BRANCH  36  45
ATOM     45  O3  AMI A   3       0.976  48.699  64.981  0.00  0.00    -0.388 OA
ATOM     46  HO3 AMI A   3       0.366  49.317  65.390  0.00  0.00    +0.211 HD
ENDBRANCH  36  45
BRANCH  38  47
ATOM     47  C6  AMI A   3       1.259  52.164  61.452  0.00  0.00    +0.165 C 
BRANCH  47  48
ATOM     48  O6  AMI A   3       0.486  52.975  62.375  0.00  0.00    -0.396 OA
ATOM     49  HO6 AMI A   3      -0.406  53.085  62.035  0.00  0.00    +0.210 HD
ENDBRANCH  47  48
ENDBRANCH  38  47
ENDBRANCH  33  37
ENDBRANCH   1  33
BRANCH   5  50
ATOM     50  C6  NAA A   1      -0.675  51.252  67.608  0.00  0.00    +0.191 C 
BRANCH  50  51
ATOM     51  O6  NAA A   1      -1.350  51.978  68.673  0.00  0.00    -0.394 OA
ATOM     52  HO6 NAA A   1      -2.157  51.515  68.914  0.00  0.00    +0.210 HD
ENDBRANCH  50  51
ENDBRANCH   5  50
TORSDOF 16
ENDMDL
MODEL 7
REMARK VINA RESULT:      -7.6      4.235      6.774
REMARK  Name = 3fy1
REMARK  21 active torsions:
REMARK  status: ('A' for Active; 'I' for Inactive)
REMARK    1  A    between atoms: C1_1  and  O4_71
REMARK    2  A    between atoms: C2_2  and  N2_9
REMARK    3  A    between atoms: C3_3  and  O3_10
REMARK    4  A    between atoms: C4_4  and  O4_11
REMARK    5  A    between atoms: C5_5  and  C6_6
REMARK    6  A    between atoms: C6_6  and  O6_13
REMARK    7  A    between atoms: C7_7  and  C8_8
REMARK    8  A    between atoms: O4_11  and  C1_28
REMARK    9  A    between atoms: C2_29  and  N2_36
REMARK   10  A    between atoms: C3_30  and  O3_37
REMARK   11  A    between atoms: C4_31  and  O4_38
REMARK   12  A    between atoms: C5_32  and  C6_33
REMARK   13  A    between atoms: C6_33  and  O6_40
REMARK   14  A    between atoms: C7_34  and  C8_35
REMARK   15  A    between atoms: O6_40  and  C9_41
REMARK   16  A    between atoms: C3_61  and  O3_70
REMARK   17  A    between atoms: C4_62  and  O4_71
REMARK   18  A    between atoms: C5_63  and  C6_64
REMARK   19  A    between atoms: C6_64  and  O6_72
REMARK   20  A    between atoms: C8_66  and  N7_69
REMARK   21  A    between atoms: C9_67  and  N7_69
REMARK                            x       y       z     vdW  Elec       q    Type
REMARK                         _______ _______ _______ _____ _____    ______ ____
ROOT
ATOM      1  C1  NAA A   1      -1.702  48.287  66.993  0.00  0.00    +0.273 C 
ATOM      2  C2  NAA A   1      -0.175  47.982  66.997  0.00  0.00    +0.161 C 
ATOM      3  C3  NAA A   1       0.598  49.138  66.310  0.00  0.00    +0.171 C 
ATOM      4  C4  NAA A   1      -0.086  49.395  64.880  0.00  0.00    +0.183 C 
ATOM      5  C5  NAA A   1      -1.606  49.729  65.071  0.00  0.00    +0.178 C 
ATOM      6  O5  NAA A   1      -2.198  48.585  65.683  0.00  0.00    -0.342 OA
ENDROOT
BRANCH   2   9
ATOM      7  C7  NAA A   1       1.078  46.994  68.857  0.00  0.00    +0.209 C 
ATOM      8  C8  NAA A   1       1.297  46.911  70.362  0.00  0.00    +0.111 C 
ATOM      9  N2  NAA A   1       0.146  47.827  68.444  0.00  0.00    -0.305 N 
ATOM     10  O7  NAA A   1       1.744  46.312  68.075  0.00  0.00    -0.278 OA
ATOM     11  HN2 NAA A   1      -0.363  48.375  69.123  0.00  0.00    +0.150 HD
ENDBRANCH   2   9
BRANCH   3  12
ATOM     12  O3  NAA A   1       0.545  50.315  67.115  0.00  0.00    -0.388 OA
ATOM     13  HO3 NAA A   1      -0.213  50.268  67.703  0.00  0.00    +0.211 HD
ENDBRANCH   3  12
BRANCH   4  14
ATOM     14  O4  NAA A   1       0.513  50.442  64.142  0.00  0.00    -0.342 OA
BRANCH  14  15
ATOM     15  C1  NA1 A   2       0.982  50.091  62.858  0.00  0.00    +0.274 C 
ATOM     16  C2  NA1 A   2       1.188  51.393  62.035  0.00  0.00    +0.161 C 
ATOM     17  C3  NA1 A   2       2.139  51.233  60.853  0.00  0.00    +0.171 C 
ATOM     18  C4  NA1 A   2       3.418  50.502  61.322  0.00  0.00    +0.176 C 
ATOM     19  C5  NA1 A   2       3.014  49.101  61.957  0.00  0.00    +0.178 C 
ATOM     20  O5  NA1 A   2       2.258  49.462  63.162  0.00  0.00    -0.342 OA
BRANCH  16  23
ATOM     21  C7  NA1 A   2      -0.678  53.022  61.887  0.00  0.00    +0.209 C 
ATOM     22  C8  NA1 A   2      -2.069  53.179  61.279  0.00  0.00    +0.111 C 
ATOM     23  N2  NA1 A   2      -0.125  51.861  61.610  0.00  0.00    -0.305 N 
ATOM     24  O7  NA1 A   2      -0.162  53.885  62.561  0.00  0.00    -0.278 OA
ATOM     25  HN2 NA1 A   2      -0.668  51.227  61.041  0.00  0.00    +0.150 HD
ENDBRANCH  16  23
BRANCH  18  26
ATOM     26  O4  NA1 A   2       4.256  50.357  60.207  0.00  0.00    -0.388 OA
ATOM     27  HO4 NA1 A   2       3.723  50.310  59.410  0.00  0.00    +0.211 HD
ENDBRANCH  18  26
BRANCH  17  28
ATOM     28  O3  NA1 A   2       1.486  50.485  59.842  0.00  0.00    -0.388 OA
ATOM     29  HO3 NA1 A   2       2.069  49.788  59.532  0.00  0.00    +0.211 HD
ENDBRANCH  17  28
BRANCH  19  30
ATOM     30  C6  NA1 A   2       4.242  48.225  62.380  0.00  0.00    +0.194 C 
BRANCH  30  31
ATOM     31  O6  NA1 A   2       4.988  47.704  61.250  0.00  0.00    -0.382 OA
ATOM     32  C9  NA1 A   2       5.230  46.377  61.239  0.00  0.00    +0.195 C 
ENDBRANCH  30  31
ENDBRANCH  19  30
ENDBRANCH  14  15
ENDBRANCH   4  14
BRANCH   1  33
ATOM     33  O4  AMI A   3      -2.355  47.130  67.467  0.00  0.00    -0.344 OA
BRANCH  33  37
ATOM     34  C1  AMI A   3      -5.521  46.105  68.957  0.00  0.00    +0.164 C 
ATOM     35  C2  AMI A   3      -5.963  47.402  68.248  0.00  0.00    +0.171 C 
ATOM     36  C3  AMI A   3      -4.768  47.790  67.378  0.00  0.00    +0.171 C 
ATOM     37  C4  AMI A   3      -3.557  47.308  68.196  0.00  0.00    +0.160 C 
ATOM     38  C5  AMI A   3      -4.061  45.907  68.534  0.00  0.00    +0.078 C 
ATOM     39  C7  AMI A   3      -7.314  45.708  67.595  0.00  0.00    +0.229 C 
ATOM     40  C8  AMI A   3      -9.174  45.634  65.943  0.00  0.00    +0.133 C 
ATOM     41  C9  AMI A   3      -8.494  43.579  67.218  0.00  0.00    +0.133 C 
ATOM     42  N2  AMI A   3      -7.077  47.016  67.441  0.00  0.00    -0.240 NA
ATOM     43  N7  AMI A   3      -8.212  44.995  66.873  0.00  0.00    -0.302 N 
ATOM     44  O7  AMI A   3      -6.410  45.090  68.429  0.00  0.00    -0.311 OA
BRANCH  36  45
ATOM     45  O3  AMI A   3      -4.788  49.212  67.252  0.00  0.00    -0.388 OA
ATOM     46  HO3 AMI A   3      -5.645  49.546  67.524  0.00  0.00    +0.211 HD
ENDBRANCH  36  45
BRANCH  38  47
ATOM     47  C6  AMI A   3      -3.212  45.170  69.642  0.00  0.00    +0.165 C 
BRANCH  47  48
ATOM     48  O6  AMI A   3      -1.803  45.209  69.296  0.00  0.00    -0.396 OA
ATOM     49  HO6 AMI A   3      -1.443  46.072  69.516  0.00  0.00    +0.210 HD
ENDBRANCH  47  48
ENDBRANCH  38  47
ENDBRANCH  33  37
ENDBRANCH   1  33
BRANCH   5  50
ATOM     50  C6  NAA A   1      -2.342  49.956  63.757  0.00  0.00    +0.191 C 
BRANCH  50  51
ATOM     51  O6  NAA A   1      -2.563  48.655  63.144  0.00  0.00    -0.394 OA
ATOM     52  HO6 NAA A   1      -2.644  48.759  62.193  0.00  0.00    +0.210 HD
ENDBRANCH  50  51
ENDBRANCH   5  50
TORSDOF 16
ENDMDL
MODEL 8
REMARK VINA RESULT:      -7.5      4.111      6.312
REMARK  Name = 3fy1
REMARK  21 active torsions:
REMARK  status: ('A' for Active; 'I' for Inactive)
REMARK    1  A    between atoms: C1_1  and  O4_71
REMARK    2  A    between atoms: C2_2  and  N2_9
REMARK    3  A    between atoms: C3_3  and  O3_10
REMARK    4  A    between atoms: C4_4  and  O4_11
REMARK    5  A    between atoms: C5_5  and  C6_6
REMARK    6  A    between atoms: C6_6  and  O6_13
REMARK    7  A    between atoms: C7_7  and  C8_8
REMARK    8  A    between atoms: O4_11  and  C1_28
REMARK    9  A    between atoms: C2_29  and  N2_36
REMARK   10  A    between atoms: C3_30  and  O3_37
REMARK   11  A    between atoms: C4_31  and  O4_38
REMARK   12  A    between atoms: C5_32  and  C6_33
REMARK   13  A    between atoms: C6_33  and  O6_40
REMARK   14  A    between atoms: C7_34  and  C8_35
REMARK   15  A    between atoms: O6_40  and  C9_41
REMARK   16  A    between atoms: C3_61  and  O3_70
REMARK   17  A    between atoms: C4_62  and  O4_71
REMARK   18  A    between atoms: C5_63  and  C6_64
REMARK   19  A    between atoms: C6_64  and  O6_72
REMARK   20  A    between atoms: C8_66  and  N7_69
REMARK   21  A    between atoms: C9_67  and  N7_69
REMARK                            x       y       z     vdW  Elec       q    Type
REMARK                         _______ _______ _______ _____ _____    ______ ____
ROOT
ATOM      1  C1  NAA A   1      -2.851  50.108  68.091  0.00  0.00    +0.273 C 
ATOM      2  C2  NAA A   1      -1.430  49.489  67.938  0.00  0.00    +0.161 C 
ATOM      3  C3  NAA A   1      -0.565  50.372  67.002  0.00  0.00    +0.171 C 
ATOM      4  C4  NAA A   1      -1.400  50.610  65.653  0.00  0.00    +0.183 C 
ATOM      5  C5  NAA A   1      -2.778  51.277  65.991  0.00  0.00    +0.178 C 
ATOM      6  O5  NAA A   1      -3.478  50.359  66.827  0.00  0.00    -0.342 OA
ENDROOT
BRANCH   2   9
ATOM      7  C7  NAA A   1      -0.076  48.499  69.725  0.00  0.00    +0.209 C 
ATOM      8  C8  NAA A   1       0.350  48.532  71.187  0.00  0.00    +0.111 C 
ATOM      9  N2  NAA A   1      -0.924  49.429  69.338  0.00  0.00    -0.305 N 
ATOM     10  O7  NAA A   1       0.358  47.643  68.951  0.00  0.00    -0.278 OA
ATOM     11  HN2 NAA A   1      -1.239  50.118  70.007  0.00  0.00    +0.150 HD
ENDBRANCH   2   9
BRANCH   3  12
ATOM     12  O3  NAA A   1      -0.263  51.615  67.637  0.00  0.00    -0.388 OA
ATOM     13  HO3 NAA A   1      -0.749  52.322  67.205  0.00  0.00    +0.211 HD
ENDBRANCH   3  12
BRANCH   4  14
ATOM     14  O4  NAA A   1      -0.732  51.420  64.704  0.00  0.00    -0.342 OA
BRANCH  14  15
ATOM     15  C1  NA1 A   2      -0.220  50.741  63.578  0.00  0.00    +0.274 C 
ATOM     16  C2  NA1 A   2       0.273  51.796  62.548  0.00  0.00    +0.161 C 
ATOM     17  C3  NA1 A   2       1.281  51.252  61.540  0.00  0.00    +0.171 C 
ATOM     18  C4  NA1 A   2       2.374  50.458  62.292  0.00  0.00    +0.176 C 
ATOM     19  C5  NA1 A   2       1.688  49.297  63.135  0.00  0.00    +0.178 C 
ATOM     20  O5  NA1 A   2       0.902  50.010  64.148  0.00  0.00    -0.342 OA
BRANCH  16  23
ATOM     21  C7  NA1 A   2      -1.079  53.597  61.505  0.00  0.00    +0.209 C 
ATOM     22  C8  NA1 A   2      -2.435  53.830  60.843  0.00  0.00    +0.111 C 
ATOM     23  N2  NA1 A   2      -0.902  52.351  61.887  0.00  0.00    -0.305 N 
ATOM     24  O7  NA1 A   2      -0.271  54.484  61.662  0.00  0.00    -0.278 OA
ATOM     25  HN2 NA1 A   2      -1.661  51.710  61.702  0.00  0.00    +0.150 HD
ENDBRANCH  16  23
BRANCH  18  26
ATOM     26  O4  NA1 A   2       3.269  49.960  61.333  0.00  0.00    -0.388 OA
ATOM     27  HO4 NA1 A   2       3.892  50.648  61.089  0.00  0.00    +0.211 HD
ENDBRANCH  18  26
BRANCH  17  28
ATOM     28  O3  NA1 A   2       0.602  50.412  60.625  0.00  0.00    -0.388 OA
ATOM     29  HO3 NA1 A   2       0.578  49.516  60.969  0.00  0.00    +0.211 HD
ENDBRANCH  17  28
BRANCH  19  30
ATOM     30  C6  NA1 A   2       2.711  48.360  63.862  0.00  0.00    +0.194 C 
BRANCH  30  31
ATOM     31  O6  NA1 A   2       3.588  47.652  62.949  0.00  0.00    -0.382 OA
ATOM     32  C9  NA1 A   2       3.601  46.307  63.035  0.00  0.00    +0.195 C 
ENDBRANCH  30  31
ENDBRANCH  19  30
ENDBRANCH  14  15
ENDBRANCH   4  14
BRANCH   1  33
ATOM     33  O4  AMI A   3      -3.634  49.175  68.802  0.00  0.00    -0.344 OA
BRANCH  33  37
ATOM     34  C1  AMI A   3      -5.793  46.356  67.976  0.00  0.00    +0.164 C 
ATOM     35  C2  AMI A   3      -4.457  45.617  68.198  0.00  0.00    +0.171 C 
ATOM     36  C3  AMI A   3      -3.530  46.674  68.796  0.00  0.00    +0.171 C 
ATOM     37  C4  AMI A   3      -4.000  47.981  68.132  0.00  0.00    +0.160 C 
ATOM     38  C5  AMI A   3      -5.501  47.812  68.352  0.00  0.00    +0.078 C 
ATOM     39  C7  AMI A   3      -6.048  44.668  69.496  0.00  0.00    +0.229 C 
ATOM     40  C8  AMI A   3      -5.921  42.835  71.175  0.00  0.00    +0.133 C 
ATOM     41  C9  AMI A   3      -8.098  43.989  70.683  0.00  0.00    +0.133 C 
ATOM     42  N2  AMI A   3      -4.757  44.600  69.156  0.00  0.00    -0.240 NA
ATOM     43  N7  AMI A   3      -6.628  43.937  70.480  0.00  0.00    -0.302 N 
ATOM     44  O7  AMI A   3      -6.715  45.706  68.886  0.00  0.00    -0.311 OA
BRANCH  36  45
ATOM     45  O3  AMI A   3      -2.200  46.332  68.404  0.00  0.00    -0.388 OA
ATOM     46  HO3 AMI A   3      -1.645  46.258  69.184  0.00  0.00    +0.211 HD
ENDBRANCH  36  45
BRANCH  38  47
ATOM     47  C6  AMI A   3      -6.386  48.831  67.532  0.00  0.00    +0.165 C 
BRANCH  47  48
ATOM     48  O6  AMI A   3      -5.983  48.829  66.138  0.00  0.00    -0.396 OA
ATOM     49  HO6 AMI A   3      -5.223  49.405  66.023  0.00  0.00    +0.210 HD
ENDBRANCH  47  48
ENDBRANCH  38  47
ENDBRANCH  33  37
ENDBRANCH   1  33
BRANCH   5  50
ATOM     50  C6  NAA A   1      -3.651  51.510  64.765  0.00  0.00    +0.191 C 
BRANCH  50  51
ATOM     51  O6  NAA A   1      -4.211  50.226  64.372  0.00  0.00    -0.394 OA
ATOM     52  HO6 NAA A   1      -5.170  50.279  64.382  0.00  0.00    +0.210 HD
ENDBRANCH  50  51
ENDBRANCH   5  50
TORSDOF 16
ENDMDL
MODEL 9
REMARK VINA RESULT:      -7.3      2.503      4.206
REMARK  Name = 3fy1
REMARK  21 active torsions:
REMARK  status: ('A' for Active; 'I' for Inactive)
REMARK    1  A    between atoms: C1_1  and  O4_71
REMARK    2  A    between atoms: C2_2  and  N2_9
REMARK    3  A    between atoms: C3_3  and  O3_10
REMARK    4  A    between atoms: C4_4  and  O4_11
REMARK    5  A    between atoms: C5_5  and  C6_6
REMARK    6  A    between atoms: C6_6  and  O6_13
REMARK    7  A    between atoms: C7_7  and  C8_8
REMARK    8  A    between atoms: O4_11  and  C1_28
REMARK    9  A    between atoms: C2_29  and  N2_36
REMARK   10  A    between atoms: C3_30  and  O3_37
REMARK   11  A    between atoms: C4_31  and  O4_38
REMARK   12  A    between atoms: C5_32  and  C6_33
REMARK   13  A    between atoms: C6_33  and  O6_40
REMARK   14  A    between atoms: C7_34  and  C8_35
REMARK   15  A    between atoms: O6_40  and  C9_41
REMARK   16  A    between atoms: C3_61  and  O3_70
REMARK   17  A    between atoms: C4_62  and  O4_71
REMARK   18  A    between atoms: C5_63  and  C6_64
REMARK   19  A    between atoms: C6_64  and  O6_72
REMARK   20  A    between atoms: C8_66  and  N7_69
REMARK   21  A    between atoms: C9_67  and  N7_69
REMARK                            x       y       z     vdW  Elec       q    Type
REMARK                         _______ _______ _______ _____ _____    ______ ____
ROOT
ATOM      1  C1  NAA A   1       1.374  50.004  62.945  0.00  0.00    +0.273 C 
ATOM      2  C2  NAA A   1       0.922  51.334  62.272  0.00  0.00    +0.161 C 
ATOM      3  C3  NAA A   1       1.357  51.350  60.784  0.00  0.00    +0.171 C 
ATOM      4  C4  NAA A   1       2.925  51.010  60.734  0.00  0.00    +0.183 C 
ATOM      5  C5  NAA A   1       3.189  49.623  61.414  0.00  0.00    +0.178 C 
ATOM      6  O5  NAA A   1       2.774  49.752  62.772  0.00  0.00    -0.342 OA
ENDROOT
BRANCH   2   9
ATOM      7  C7  NAA A   1      -1.255  52.450  62.413  0.00  0.00    +0.209 C 
ATOM      8  C8  NAA A   1      -2.756  52.322  62.644  0.00  0.00    +0.111 C 
ATOM      9  N2  NAA A   1      -0.556  51.336  62.462  0.00  0.00    -0.305 N 
ATOM     10  O7  NAA A   1      -0.733  53.545  62.192  0.00  0.00    -0.278 OA
ATOM     11  HN2 NAA A   1      -1.032  50.461  62.632  0.00  0.00    +0.150 HD
ENDBRANCH   2   9
BRANCH   3  12
ATOM     12  O3  NAA A   1       0.607  50.390  60.040  0.00  0.00    -0.388 OA
ATOM     13  HO3 NAA A   1      -0.329  50.499  60.226  0.00  0.00    +0.211 HD
ENDBRANCH   3  12
BRANCH   4  14
ATOM     14  O4  NAA A   1       3.459  50.975  59.425  0.00  0.00    -0.342 OA
BRANCH  14  15
ATOM     15  C1  NA1 A   2       3.908  52.213  58.918  0.00  0.00    +0.274 C 
ATOM     16  C2  NA1 A   2       4.327  52.016  57.434  0.00  0.00    +0.161 C 
ATOM     17  C3  NA1 A   2       4.349  53.307  56.621  0.00  0.00    +0.171 C 
ATOM     18  C4  NA1 A   2       3.039  54.089  56.871  0.00  0.00    +0.176 C 
ATOM     19  C5  NA1 A   2       2.889  54.367  58.429  0.00  0.00    +0.178 C 
ATOM     20  O5  NA1 A   2       2.710  53.033  59.013  0.00  0.00    -0.342 OA
BRANCH  16  23
ATOM     21  C7  NA1 A   2       5.854  50.067  57.265  0.00  0.00    +0.209 C 
ATOM     22  C8  NA1 A   2       7.339  49.716  57.312  0.00  0.00    +0.111 C 
ATOM     23  N2  NA1 A   2       5.625  51.352  57.425  0.00  0.00    -0.305 N 
ATOM     24  O7  NA1 A   2       4.993  49.230  57.108  0.00  0.00    -0.278 OA
ATOM     25  HN2 NA1 A   2       6.435  51.942  57.554  0.00  0.00    +0.150 HD
ENDBRANCH  16  23
BRANCH  18  26
ATOM     26  O4  NA1 A   2       3.106  55.274  56.123  0.00  0.00    -0.388 OA
ATOM     27  HO4 NA1 A   2       3.734  55.875  56.530  0.00  0.00    +0.211 HD
ENDBRANCH  18  26
BRANCH  17  28
ATOM     28  O3  NA1 A   2       5.469  54.077  57.021  0.00  0.00    -0.388 OA
ATOM     29  HO3 NA1 A   2       5.648  53.922  57.952  0.00  0.00    +0.211 HD
ENDBRANCH  17  28
BRANCH  19  30
ATOM     30  C6  NA1 A   2       1.642  55.244  58.793  0.00  0.00    +0.194 C 
BRANCH  30  31
ATOM     31  O6  NA1 A   2       1.978  56.421  59.571  0.00  0.00    -0.382 OA
ATOM     32  C9  NA1 A   2       2.023  57.596  58.911  0.00  0.00    +0.195 C 
ENDBRANCH  30  31
ENDBRANCH  19  30
ENDBRANCH  14  15
ENDBRANCH   4  14
BRANCH   1  33
ATOM     33  O4  AMI A   3       1.108  50.128  64.324  0.00  0.00    -0.344 OA
BRANCH  33  37
ATOM     34  C1  AMI A   3      -0.534  48.403  67.085  0.00  0.00    +0.164 C 
ATOM     35  C2  AMI A   3       0.460  47.311  66.636  0.00  0.00    +0.171 C 
ATOM     36  C3  AMI A   3       1.379  48.016  65.639  0.00  0.00    +0.171 C 
ATOM     37  C4  AMI A   3       0.456  49.047  64.966  0.00  0.00    +0.160 C 
ATOM     38  C5  AMI A   3      -0.187  49.623  66.225  0.00  0.00    +0.078 C 
ATOM     39  C7  AMI A   3       0.725  47.682  68.852  0.00  0.00    +0.229 C 
ATOM     40  C8  AMI A   3       2.341  46.740  70.494  0.00  0.00    +0.133 C 
ATOM     41  C9  AMI A   3       0.619  48.430  71.198  0.00  0.00    +0.133 C 
ATOM     42  N2  AMI A   3       1.171  46.955  67.823  0.00  0.00    -0.240 NA
ATOM     43  N7  AMI A   3       1.277  47.690  70.090  0.00  0.00    -0.302 N 
ATOM     44  O7  AMI A   3      -0.241  48.594  68.491  0.00  0.00    -0.311 OA
BRANCH  36  45
ATOM     45  O3  AMI A   3       1.828  47.025  64.713  0.00  0.00    -0.388 OA
ATOM     46  HO3 AMI A   3       2.563  47.372  64.204  0.00  0.00    +0.211 HD
ENDBRANCH  36  45
BRANCH  38  47
ATOM     47  C6  AMI A   3      -1.446  50.533  65.943  0.00  0.00    +0.165 C 
BRANCH  47  48
ATOM     48  O6  AMI A   3      -1.022  51.888  65.640  0.00  0.00    -0.396 OA
ATOM     49  HO6 AMI A   3      -0.212  51.862  65.124  0.00  0.00    +0.210 HD
ENDBRANCH  47  48
ENDBRANCH  38  47
ENDBRANCH  33  37
ENDBRANCH   1  33
BRANCH   5  50
ATOM     50  C6  NAA A   1       4.662  49.236  61.439  0.00  0.00    +0.191 C 
BRANCH  50  51
ATOM     51  O6  NAA A   1       4.981  48.627  60.158  0.00  0.00    -0.394 OA
ATOM     52  HO6 NAA A   1       5.854  48.912  59.876  0.00  0.00    +0.210 HD
ENDBRANCH  50  51
ENDBRANCH   5  50
TORSDOF 16
ENDMDL
