REMARK  Name = NONAME
REMARK  10 active torsions:
REMARK  status: ('A' for Active; 'I' for Inactive)
REMARK    1  A    between atoms: C_1  and  O_42
REMARK    2  A    between atoms: C_2  and  N_9
REMARK    3  A    between atoms: C_4  and  O_11
REMARK    4  A    between atoms: C_5  and  C_6
REMARK    5  A    between atoms: O_11  and  C_15
REMARK    6  A    between atoms: C_16  and  N_23
REMARK    7  A    between atoms: C_19  and  C_20
REMARK    8  A    between atoms: C_20  and  O_27
REMARK    9  A    between atoms: C_33  and  O_42
REMARK   10  A    between atoms: C_34  and  C_35
REMARK                            x       y       z     vdW  Elec       q    Type
REMARK                         _______ _______ _______ _____ _____    ______ ____
ROOT
ATOM      1  C   UNL     1      15.455  17.790  19.382  0.00  0.00    +0.000 C 
ATOM      2  C   UNL     1      15.197  19.273  18.981  0.00  0.00    +0.000 C 
ATOM      3  C   UNL     1      15.014  19.382  17.445  0.00  0.00    +0.000 C 
ATOM      4  C   UNL     1      16.266  18.652  16.755  0.00  0.00    +0.000 C 
ATOM      5  C   UNL     1      16.345  17.163  17.238  0.00  0.00    +0.000 C 
ATOM      6  O   UNL     1      13.788  18.767  17.049  0.00  0.00    +0.000 OA
ATOM      7  O   UNL     1      16.539  17.205  18.650  0.00  0.00    +0.000 OA
ENDROOT
BRANCH   2  10
ATOM      8  C   UNL     1      14.006  20.559  20.693  0.00  0.00    +0.000 C 
ATOM      9  C   UNL     1      12.698  20.825  21.427  0.00  0.00    +0.000 C 
ATOM     10  N   UNL     1      13.977  19.636  19.755  0.00  0.00    +0.000 NA
ATOM     11  O   UNL     1      15.033  21.183  20.970  0.00  0.00    +0.000 OA
ENDBRANCH   2  10
BRANCH   5  12
ATOM     12  C   UNL     1      17.529  16.403  16.654  0.00  0.00    +0.000 C 
ATOM     13  O   UNL     1      17.522  15.066  17.227  0.00  0.00    +0.000 OA
ENDBRANCH   5  12
BRANCH   4  14
ATOM     14  O   UNL     1      16.223  18.662  15.341  0.00  0.00    +0.000 OA
BRANCH  14  15
ATOM     15  C   UNL     1      16.791  19.796  14.723  0.00  0.00    +0.000 C 
ATOM     16  C   UNL     1      17.386  19.365  13.353  0.00  0.00    +0.000 C 
ATOM     17  C   UNL     1      17.573  20.517  12.370  0.00  0.00    +0.000 C 
ATOM     18  C   UNL     1      16.280  21.364  12.326  0.00  0.00    +0.000 C 
ATOM     19  C   UNL     1      15.945  21.879  13.793  0.00  0.00    +0.000 C 
ATOM     20  O   UNL     1      18.667  21.308  12.799  0.00  0.00    +0.000 OA
ATOM     21  O   UNL     1      16.497  22.420  11.429  0.00  0.00    +0.000 OA
ATOM     22  O   UNL     1      15.631  20.654  14.537  0.00  0.00    +0.000 OA
BRANCH  16  25
ATOM     23  C   UNL     1      18.868  17.381  13.508  0.00  0.00    +0.000 C 
ATOM     24  C   UNL     1      20.303  16.997  13.862  0.00  0.00    +0.000 C 
ATOM     25  N   UNL     1      18.642  18.672  13.614  0.00  0.00    +0.000 NA
ATOM     26  O   UNL     1      18.039  16.563  13.178  0.00  0.00    +0.000 OA
ENDBRANCH  16  25
BRANCH  19  27
ATOM     27  C   UNL     1      14.705  22.835  13.855  0.00  0.00    +0.000 C 
BRANCH  27  28
ATOM     28  O   UNL     1      13.598  22.390  13.030  0.00  0.00    +0.000 OA
ATOM     29  C   UNL     1      12.629  21.679  13.642  0.00  0.00    +0.000 C 
ENDBRANCH  27  28
ENDBRANCH  19  27
ENDBRANCH  14  15
ENDBRANCH   4  14
BRANCH   1  30
ATOM     30  O   UNL     1      15.786  17.785  20.753  0.00  0.00    +0.000 OA
BRANCH  30  34
ATOM     31  C   UNL     1      16.166  15.542  23.602  0.00  0.00    +0.000 C 
ATOM     32  C   UNL     1      16.924  14.740  22.524  0.00  0.00    +0.000 C 
ATOM     33  C   UNL     1      17.045  15.704  21.344  0.00  0.00    +0.000 C 
ATOM     34  C   UNL     1      15.756  16.541  21.430  0.00  0.00    +0.000 C 
ATOM     35  C   UNL     1      15.803  16.866  22.921  0.00  0.00    +0.000 C 
ATOM     36  C   UNL     1      18.268  15.007  24.324  0.00  0.00    +0.000 C 
ATOM     37  C   UNL     1      20.635  14.347  24.719  0.00  0.00    +0.000 C 
ATOM     38  C   UNL     1      19.314  15.545  26.489  0.00  0.00    +0.000 C 
ATOM     39  N   UNL     1      18.204  14.474  23.099  0.00  0.00    -1.000 NA
ATOM     40  N   UNL     1      19.386  15.054  25.089  0.00  0.00    +1.000 N 
ATOM     41  O   UNL     1      17.080  14.909  20.158  0.00  0.00    +0.000 OA
ATOM     42  O   UNL     1      17.129  15.697  24.673  0.00  0.00    +0.000 OA
BRANCH  35  43
ATOM     43  C   UNL     1      14.463  17.481  23.485  0.00  0.00    +0.000 C 
ATOM     44  O   UNL     1      13.351  16.592  23.202  0.00  0.00    +0.000 OA
ENDBRANCH  35  43
ENDBRANCH  30  34
ENDBRANCH   1  30
TORSDOF 10
