MODEL 1
REMARK VINA RESULT:      -9.1      0.000      0.000
REMARK  Name = NONAME
REMARK  10 active torsions:
REMARK  status: ('A' for Active; 'I' for Inactive)
REMARK    1  A    between atoms: C_1  and  O_41
REMARK    2  A    between atoms: C_2  and  N_9
REMARK    3  A    between atoms: C_4  and  O_11
REMARK    4  A    between atoms: C_5  and  C_6
REMARK    5  A    between atoms: O_11  and  C_15
REMARK    6  A    between atoms: C_16  and  N_23
REMARK    7  A    between atoms: C_19  and  C_20
REMARK    8  A    between atoms: C_20  and  O_27
REMARK    9  A    between atoms: C_33  and  O_41
REMARK   10  A    between atoms: C_34  and  C_35
REMARK                            x       y       z     vdW  Elec       q    Type
REMARK                         _______ _______ _______ _____ _____    ______ ____
ROOT
ATOM      1  C   UNL     1      -0.031  49.477  66.616  0.00  0.00    +0.000 C 
ATOM      2  C   UNL     1      -0.392  50.934  66.203  0.00  0.00    +0.000 C 
ATOM      3  C   UNL     1      -0.643  51.004  64.674  0.00  0.00    +0.000 C 
ATOM      4  C   UNL     1       0.621  50.335  63.945  0.00  0.00    +0.000 C 
ATOM      5  C   UNL     1       0.807  48.863  64.448  0.00  0.00    +0.000 C 
ATOM      6  O   UNL     1      -1.845  50.311  64.339  0.00  0.00    +0.000 OA
ATOM      7  O   UNL     1       1.055  48.942  65.850  0.00  0.00    +0.000 OA
ENDROOT
BRANCH   2  10
ATOM      8  C   UNL     1      -1.594  52.194  67.927  0.00  0.00    +0.000 C 
ATOM      9  C   UNL     1      -2.884  52.395  68.711  0.00  0.00    +0.000 C 
ATOM     10  N   UNL     1      -1.599  51.240  67.020  0.00  0.00    +0.000 NA
ATOM     11  O   UNL     1      -0.601  52.896  68.137  0.00  0.00    +0.000 OA
ENDBRANCH   2  10
BRANCH   5  12
ATOM     12  C   UNL     1       2.010  48.163  63.828  0.00  0.00    +0.000 C 
ATOM     13  O   UNL     1       1.943  46.758  64.200  0.00  0.00    +0.000 OA
ENDBRANCH   5  12
BRANCH   4  14
ATOM     14  O   UNL     1       0.521  50.317  62.534  0.00  0.00    +0.000 OA
BRANCH  14  15
ATOM     15  C   UNL     1       1.249  51.319  61.859  0.00  0.00    +0.000 C 
ATOM     16  C   UNL     1       1.753  50.738  60.508  0.00  0.00    +0.000 C 
ATOM     17  C   UNL     1       2.103  51.800  59.470  0.00  0.00    +0.000 C 
ATOM     18  C   UNL     1       0.955  52.833  59.391  0.00  0.00    +0.000 C 
ATOM     19  C   UNL     1       0.721  53.462  60.833  0.00  0.00    +0.000 C 
ATOM     20  O   UNL     1       3.310  52.432  59.854  0.00  0.00    +0.000 OA
ATOM     21  O   UNL     1       1.320  53.799  58.443  0.00  0.00    +0.000 OA
ATOM     22  O   UNL     1       0.232  52.336  61.637  0.00  0.00    +0.000 OA
BRANCH  16  25
ATOM     23  C   UNL     1       3.107  48.667  60.318  0.00  0.00    +0.000 C 
ATOM     24  C   UNL     1       4.403  48.045  60.835  0.00  0.00    +0.000 C 
ATOM     25  N   UNL     1       2.891  49.873  60.796  0.00  0.00    +0.000 NA
ATOM     26  O   UNL     1       2.366  48.087  59.557  0.00  0.00    +0.000 OA
ENDBRANCH  16  25
BRANCH  19  27
ATOM     27  C   UNL     1      -0.357  54.599  60.855  0.00  0.00    +0.000 C 
BRANCH  27  28
ATOM     28  O   UNL     1       0.181  55.890  61.240  0.00  0.00    +0.000 OA
ATOM     29  C   UNL     1       0.440  56.763  60.245  0.00  0.00    +0.000 C 
ENDBRANCH  27  28
ENDBRANCH  19  27
ENDBRANCH  14  15
ENDBRANCH   4  14
BRANCH   1  30
ATOM     30  O   UNL     1       0.354  49.516  67.973  0.00  0.00    +0.000 OA
BRANCH  30  34
ATOM     31  C   UNL     1       0.668  47.402  70.926  0.00  0.00    +0.000 C 
ATOM     32  C   UNL     1       1.438  46.547  69.899  0.00  0.00    +0.000 C 
ATOM     33  C   UNL     1       1.587  47.455  68.679  0.00  0.00    +0.000 C 
ATOM     34  C   UNL     1       0.303  48.304  68.704  0.00  0.00    +0.000 C 
ATOM     35  C   UNL     1       0.327  48.696  70.180  0.00  0.00    +0.000 C 
ATOM     36  C   UNL     1       2.753  46.885  71.708  0.00  0.00    +0.000 C 
ATOM     37  C   UNL     1       3.766  47.513  73.865  0.00  0.00    +0.000 C 
ATOM     38  N   UNL     1       2.706  46.298  70.507  0.00  0.00    -1.000 NA
ATOM     39  N   UNL     1       3.858  46.959  72.490  0.00  0.00    +1.000 NA
ATOM     40  O   UNL     1       1.636  46.607  67.531  0.00  0.00    +0.000 OA
ATOM     41  O   UNL     1       1.614  47.598  72.006  0.00  0.00    +0.000 OA
BRANCH  35  42
ATOM     42  C   UNL     1      -1.018  49.346  70.692  0.00  0.00    +0.000 C 
ATOM     43  O   UNL     1      -2.110  48.989  69.806  0.00  0.00    +0.000 OA
ENDBRANCH  35  42
ENDBRANCH  30  34
ENDBRANCH   1  30
TORSDOF 10
ENDMDL
MODEL 2
REMARK VINA RESULT:      -8.7      2.985      8.722
REMARK  Name = NONAME
REMARK  10 active torsions:
REMARK  status: ('A' for Active; 'I' for Inactive)
REMARK    1  A    between atoms: C_1  and  O_41
REMARK    2  A    between atoms: C_2  and  N_9
REMARK    3  A    between atoms: C_4  and  O_11
REMARK    4  A    between atoms: C_5  and  C_6
REMARK    5  A    between atoms: O_11  and  C_15
REMARK    6  A    between atoms: C_16  and  N_23
REMARK    7  A    between atoms: C_19  and  C_20
REMARK    8  A    between atoms: C_20  and  O_27
REMARK    9  A    between atoms: C_33  and  O_41
REMARK   10  A    between atoms: C_34  and  C_35
REMARK                            x       y       z     vdW  Elec       q    Type
REMARK                         _______ _______ _______ _____ _____    ______ ____
ROOT
ATOM      1  C   UNL     1       1.367  49.755  63.566  0.00  0.00    +0.000 C 
ATOM      2  C   UNL     1       0.214  50.655  63.030  0.00  0.00    +0.000 C 
ATOM      3  C   UNL     1      -0.608  51.224  64.216  0.00  0.00    +0.000 C 
ATOM      4  C   UNL     1      -1.027  49.989  65.152  0.00  0.00    +0.000 C 
ATOM      5  C   UNL     1       0.256  49.227  65.632  0.00  0.00    +0.000 C 
ATOM      6  O   UNL     1       0.171  52.172  64.947  0.00  0.00    +0.000 OA
ATOM      7  O   UNL     1       0.899  48.736  64.458  0.00  0.00    +0.000 OA
ENDROOT
BRANCH   2  10
ATOM      8  C   UNL     1       0.829  51.754  60.929  0.00  0.00    +0.000 C 
ATOM      9  C   UNL     1       1.620  52.856  60.235  0.00  0.00    +0.000 C 
ATOM     10  N   UNL     1       0.925  51.699  62.241  0.00  0.00    +0.000 NA
ATOM     11  O   UNL     1       0.137  50.961  60.286  0.00  0.00    +0.000 OA
ENDBRANCH   2  10
BRANCH   5  12
ATOM     12  C   UNL     1      -0.054  48.016  66.502  0.00  0.00    +0.000 C 
ATOM     13  O   UNL     1       1.180  47.264  66.668  0.00  0.00    +0.000 OA
ENDBRANCH   5  12
BRANCH   4  14
ATOM     14  O   UNL     1      -1.776  50.366  66.291  0.00  0.00    +0.000 OA
BRANCH  14  15
ATOM     15  C   UNL     1      -2.905  49.568  66.569  0.00  0.00    +0.000 C 
ATOM     16  C   UNL     1      -3.493  50.004  67.940  0.00  0.00    +0.000 C 
ATOM     17  C   UNL     1      -4.953  49.609  68.141  0.00  0.00    +0.000 C 
ATOM     18  C   UNL     1      -5.764  50.003  66.885  0.00  0.00    +0.000 C 
ATOM     19  C   UNL     1      -5.125  49.298  65.610  0.00  0.00    +0.000 C 
ATOM     20  O   UNL     1      -5.021  48.211  68.355  0.00  0.00    +0.000 OA
ATOM     21  O   UNL     1      -7.093  49.608  67.099  0.00  0.00    +0.000 OA
ATOM     22  O   UNL     1      -3.804  49.924  65.483  0.00  0.00    +0.000 OA
BRANCH  16  25
ATOM     23  C   UNL     1      -1.753  50.103  69.707  0.00  0.00    +0.000 C 
ATOM     24  C   UNL     1      -1.031  49.208  70.712  0.00  0.00    +0.000 C 
ATOM     25  N   UNL     1      -2.638  49.452  68.984  0.00  0.00    +0.000 NA
ATOM     26  O   UNL     1      -1.511  51.284  69.597  0.00  0.00    +0.000 OA
ENDBRANCH  16  25
BRANCH  19  27
ATOM     27  C   UNL     1      -5.927  49.545  64.287  0.00  0.00    +0.000 C 
BRANCH  27  28
ATOM     28  O   UNL     1      -6.368  50.918  64.134  0.00  0.00    +0.000 OA
ATOM     29  C   UNL     1      -5.840  51.616  63.107  0.00  0.00    +0.000 C 
ENDBRANCH  27  28
ENDBRANCH  19  27
ENDBRANCH  14  15
ENDBRANCH   4  14
BRANCH   1  30
ATOM     30  O   UNL     1       1.959  49.133  62.447  0.00  0.00    +0.000 OA
BRANCH  30  34
ATOM     31  C   UNL     1       5.071  47.526  61.435  0.00  0.00    +0.000 C 
ATOM     32  C   UNL     1       4.524  46.464  62.412  0.00  0.00    +0.000 C 
ATOM     33  C   UNL     1       3.095  46.919  62.710  0.00  0.00    +0.000 C 
ATOM     34  C   UNL     1       3.186  48.454  62.647  0.00  0.00    +0.000 C 
ATOM     35  C   UNL     1       3.959  48.576  61.336  0.00  0.00    +0.000 C 
ATOM     36  C   UNL     1       4.988  45.473  60.432  0.00  0.00    +0.000 C 
ATOM     37  C   UNL     1       5.655  44.875  58.137  0.00  0.00    +0.000 C 
ATOM     38  N   UNL     1       4.527  45.246  61.667  0.00  0.00    -1.000 NA
ATOM     39  N   UNL     1       4.994  44.561  59.429  0.00  0.00    +1.000 NA
ATOM     40  O   UNL     1       2.779  46.462  64.026  0.00  0.00    +0.000 OA
ATOM     41  O   UNL     1       5.280  46.798  60.200  0.00  0.00    +0.000 OA
BRANCH  35  42
ATOM     42  C   UNL     1       4.526  50.023  61.059  0.00  0.00    +0.000 C 
ATOM     43  O   UNL     1       4.151  50.456  59.725  0.00  0.00    +0.000 OA
ENDBRANCH  35  42
ENDBRANCH  30  34
ENDBRANCH   1  30
TORSDOF 10
ENDMDL
MODEL 3
REMARK VINA RESULT:      -8.4      3.075      9.008
REMARK  Name = NONAME
REMARK  10 active torsions:
REMARK  status: ('A' for Active; 'I' for Inactive)
REMARK    1  A    between atoms: C_1  and  O_41
REMARK    2  A    between atoms: C_2  and  N_9
REMARK    3  A    between atoms: C_4  and  O_11
REMARK    4  A    between atoms: C_5  and  C_6
REMARK    5  A    between atoms: O_11  and  C_15
REMARK    6  A    between atoms: C_16  and  N_23
REMARK    7  A    between atoms: C_19  and  C_20
REMARK    8  A    between atoms: C_20  and  O_27
REMARK    9  A    between atoms: C_33  and  O_41
REMARK   10  A    between atoms: C_34  and  C_35
REMARK                            x       y       z     vdW  Elec       q    Type
REMARK                         _______ _______ _______ _____ _____    ______ ____
ROOT
ATOM      1  C   UNL     1       1.316  49.735  63.949  0.00  0.00    +0.000 C 
ATOM      2  C   UNL     1      -0.139  50.246  63.727  0.00  0.00    +0.000 C 
ATOM      3  C   UNL     1      -0.677  50.894  65.029  0.00  0.00    +0.000 C 
ATOM      4  C   UNL     1      -0.452  49.844  66.222  0.00  0.00    +0.000 C 
ATOM      5  C   UNL     1       1.068  49.477  66.327  0.00  0.00    +0.000 C 
ATOM      6  O   UNL     1       0.013  52.116  65.294  0.00  0.00    +0.000 OA
ATOM      7  O   UNL     1       1.425  48.871  65.087  0.00  0.00    +0.000 OA
ENDROOT
BRANCH   2  10
ATOM      8  C   UNL     1      -0.862  51.221  61.598  0.00  0.00    +0.000 C 
ATOM      9  C   UNL     1      -0.602  52.234  60.491  0.00  0.00    +0.000 C 
ATOM     10  N   UNL     1      -0.002  51.205  62.595  0.00  0.00    +0.000 NA
ATOM     11  O   UNL     1      -1.831  50.460  61.554  0.00  0.00    +0.000 OA
ENDBRANCH   2  10
BRANCH   5  12
ATOM     12  C   UNL     1       1.367  48.456  67.418  0.00  0.00    +0.000 C 
ATOM     13  O   UNL     1       1.248  47.132  66.828  0.00  0.00    +0.000 OA
ENDBRANCH   5  12
BRANCH   4  14
ATOM     14  O   UNL     1      -0.888  50.313  67.484  0.00  0.00    +0.000 OA
BRANCH  14  15
ATOM     15  C   UNL     1      -1.808  49.482  68.157  0.00  0.00    +0.000 C 
ATOM     16  C   UNL     1      -2.585  48.649  67.100  0.00  0.00    +0.000 C 
ATOM     17  C   UNL     1      -3.228  47.383  67.660  0.00  0.00    +0.000 C 
ATOM     18  C   UNL     1      -2.189  46.620  68.514  0.00  0.00    +0.000 C 
ATOM     19  C   UNL     1      -1.655  47.579  69.665  0.00  0.00    +0.000 C 
ATOM     20  O   UNL     1      -4.343  47.752  68.452  0.00  0.00    +0.000 OA
ATOM     21  O   UNL     1      -2.820  45.477  69.025  0.00  0.00    +0.000 OA
ATOM     22  O   UNL     1      -0.929  48.630  68.944  0.00  0.00    +0.000 OA
BRANCH  16  25
ATOM     23  C   UNL     1      -3.998  49.486  65.240  0.00  0.00    +0.000 C 
ATOM     24  C   UNL     1      -5.040  50.559  64.932  0.00  0.00    +0.000 C 
ATOM     25  N   UNL     1      -3.574  49.526  66.484  0.00  0.00    +0.000 NA
ATOM     26  O   UNL     1      -3.610  48.699  64.406  0.00  0.00    +0.000 OA
ENDBRANCH  16  25
BRANCH  19  27
ATOM     27  C   UNL     1      -0.667  46.878  70.659  0.00  0.00    +0.000 C 
BRANCH  27  28
ATOM     28  O   UNL     1       0.316  47.784  71.221  0.00  0.00    +0.000 OA
ATOM     29  C   UNL     1       1.614  47.487  71.004  0.00  0.00    +0.000 C 
ENDBRANCH  27  28
ENDBRANCH  19  27
ENDBRANCH  14  15
ENDBRANCH   4  14
BRANCH   1  30
ATOM     30  O   UNL     1       1.677  49.007  62.797  0.00  0.00    +0.000 OA
BRANCH  30  34
ATOM     31  C   UNL     1       4.685  47.641  61.253  0.00  0.00    +0.000 C 
ATOM     32  C   UNL     1       4.362  46.515  62.258  0.00  0.00    +0.000 C 
ATOM     33  C   UNL     1       2.973  46.865  62.791  0.00  0.00    +0.000 C 
ATOM     34  C   UNL     1       2.959  48.404  62.778  0.00  0.00    +0.000 C 
ATOM     35  C   UNL     1       3.510  48.618  61.370  0.00  0.00    +0.000 C 
ATOM     36  C   UNL     1       4.570  45.620  60.191  0.00  0.00    +0.000 C 
ATOM     37  C   UNL     1       4.906  45.140  57.798  0.00  0.00    +0.000 C 
ATOM     38  N   UNL     1       4.322  45.324  61.471  0.00  0.00    -1.000 NA
ATOM     39  N   UNL     1       4.475  44.742  59.162  0.00  0.00    +1.000 NA
ATOM     40  O   UNL     1       2.894  46.348  64.120  0.00  0.00    +0.000 OA
ATOM     41  O   UNL     1       4.742  46.968  59.972  0.00  0.00    +0.000 OA
BRANCH  35  42
ATOM     42  C   UNL     1       3.937  50.107  61.068  0.00  0.00    +0.000 C 
ATOM     43  O   UNL     1       5.341  50.155  60.700  0.00  0.00    +0.000 OA
ENDBRANCH  35  42
ENDBRANCH  30  34
ENDBRANCH   1  30
TORSDOF 10
ENDMDL
MODEL 4
REMARK VINA RESULT:      -8.4      2.779      9.189
REMARK  Name = NONAME
REMARK  10 active torsions:
REMARK  status: ('A' for Active; 'I' for Inactive)
REMARK    1  A    between atoms: C_1  and  O_41
REMARK    2  A    between atoms: C_2  and  N_9
REMARK    3  A    between atoms: C_4  and  O_11
REMARK    4  A    between atoms: C_5  and  C_6
REMARK    5  A    between atoms: O_11  and  C_15
REMARK    6  A    between atoms: C_16  and  N_23
REMARK    7  A    between atoms: C_19  and  C_20
REMARK    8  A    between atoms: C_20  and  O_27
REMARK    9  A    between atoms: C_33  and  O_41
REMARK   10  A    between atoms: C_34  and  C_35
REMARK                            x       y       z     vdW  Elec       q    Type
REMARK                         _______ _______ _______ _____ _____    ______ ____
ROOT
ATOM      1  C   UNL     1       1.228  50.486  63.144  0.00  0.00    +0.000 C 
ATOM      2  C   UNL     1      -0.079  51.331  63.073  0.00  0.00    +0.000 C 
ATOM      3  C   UNL     1      -0.676  51.503  64.494  0.00  0.00    +0.000 C 
ATOM      4  C   UNL     1      -0.792  50.042  65.150  0.00  0.00    +0.000 C 
ATOM      5  C   UNL     1       0.619  49.360  65.179  0.00  0.00    +0.000 C 
ATOM      6  O   UNL     1       0.162  52.347  65.283  0.00  0.00    +0.000 OA
ATOM      7  O   UNL     1       1.037  49.238  63.821  0.00  0.00    +0.000 OA
ENDROOT
BRANCH   2  10
ATOM      8  C   UNL     1      -0.444  53.336  61.712  0.00  0.00    +0.000 C 
ATOM      9  C   UNL     1       0.136  54.613  61.119  0.00  0.00    +0.000 C 
ATOM     10  N   UNL     1       0.366  52.611  62.454  0.00  0.00    +0.000 NA
ATOM     11  O   UNL     1      -1.614  53.008  61.504  0.00  0.00    +0.000 OA
ENDBRANCH   2  10
BRANCH   5  12
ATOM     12  C   UNL     1       0.594  47.951  65.759  0.00  0.00    +0.000 C 
ATOM     13  O   UNL     1       0.979  47.031  64.700  0.00  0.00    +0.000 OA
ENDBRANCH   5  12
BRANCH   4  14
ATOM     14  O   UNL     1      -1.312  50.048  66.466  0.00  0.00    +0.000 OA
BRANCH  14  15
ATOM     15  C   UNL     1      -2.456  49.247  66.671  0.00  0.00    +0.000 C 
ATOM     16  C   UNL     1      -2.932  49.435  68.139  0.00  0.00    +0.000 C 
ATOM     17  C   UNL     1      -4.392  49.055  68.369  0.00  0.00    +0.000 C 
ATOM     18  C   UNL     1      -5.266  49.705  67.271  0.00  0.00    +0.000 C 
ATOM     19  C   UNL     1      -4.744  49.234  65.844  0.00  0.00    +0.000 C 
ATOM     20  O   UNL     1      -4.508  47.644  68.322  0.00  0.00    +0.000 OA
ATOM     21  O   UNL     1      -6.593  49.319  67.505  0.00  0.00    +0.000 OA
ATOM     22  O   UNL     1      -3.408  49.832  65.739  0.00  0.00    +0.000 OA
BRANCH  16  25
ATOM     23  C   UNL     1      -1.355  49.116  70.028  0.00  0.00    +0.000 C 
ATOM     24  C   UNL     1      -0.511  48.034  70.700  0.00  0.00    +0.000 C 
ATOM     25  N   UNL     1      -2.036  48.668  68.996  0.00  0.00    +0.000 NA
ATOM     26  O   UNL     1      -1.371  50.262  70.417  0.00  0.00    +0.000 OA
ENDBRANCH  16  25
BRANCH  19  27
ATOM     27  C   UNL     1      -5.620  49.753  64.653  0.00  0.00    +0.000 C 
BRANCH  27  28
ATOM     28  O   UNL     1      -5.990  51.149  64.781  0.00  0.00    +0.000 OA
ATOM     29  C   UNL     1      -5.429  52.011  63.909  0.00  0.00    +0.000 C 
ENDBRANCH  27  28
ENDBRANCH  19  27
ENDBRANCH  14  15
ENDBRANCH   4  14
BRANCH   1  30
ATOM     30  O   UNL     1       1.619  50.220  61.815  0.00  0.00    +0.000 OA
BRANCH  30  34
ATOM     31  C   UNL     1       4.596  50.051  59.718  0.00  0.00    +0.000 C 
ATOM     32  C   UNL     1       4.866  48.864  60.666  0.00  0.00    +0.000 C 
ATOM     33  C   UNL     1       3.557  48.683  61.434  0.00  0.00    +0.000 C 
ATOM     34  C   UNL     1       3.006  50.116  61.549  0.00  0.00    +0.000 C 
ATOM     35  C   UNL     1       3.194  50.541  60.094  0.00  0.00    +0.000 C 
ATOM     36  C   UNL     1       5.011  48.145  58.526  0.00  0.00    +0.000 C 
ATOM     37  C   UNL     1       5.071  47.866  56.079  0.00  0.00    +0.000 C 
ATOM     38  N   UNL     1       5.108  47.753  59.801  0.00  0.00    -1.000 NA
ATOM     39  N   UNL     1       5.050  47.313  57.457  0.00  0.00    +1.000 NA
ATOM     40  O   UNL     1       3.896  48.144  62.713  0.00  0.00    +0.000 OA
ATOM     41  O   UNL     1       4.661  49.470  58.393  0.00  0.00    +0.000 OA
BRANCH  35  42
ATOM     42  C   UNL     1       3.017  52.091  59.852  0.00  0.00    +0.000 C 
ATOM     43  O   UNL     1       4.063  52.578  58.972  0.00  0.00    +0.000 OA
ENDBRANCH  35  42
ENDBRANCH  30  34
ENDBRANCH   1  30
TORSDOF 10
ENDMDL
MODEL 5
REMARK VINA RESULT:      -8.1      3.721      6.355
REMARK  Name = NONAME
REMARK  10 active torsions:
REMARK  status: ('A' for Active; 'I' for Inactive)
REMARK    1  A    between atoms: C_1  and  O_41
REMARK    2  A    between atoms: C_2  and  N_9
REMARK    3  A    between atoms: C_4  and  O_11
REMARK    4  A    between atoms: C_5  and  C_6
REMARK    5  A    between atoms: O_11  and  C_15
REMARK    6  A    between atoms: C_16  and  N_23
REMARK    7  A    between atoms: C_19  and  C_20
REMARK    8  A    between atoms: C_20  and  O_27
REMARK    9  A    between atoms: C_33  and  O_41
REMARK   10  A    between atoms: C_34  and  C_35
REMARK                            x       y       z     vdW  Elec       q    Type
REMARK                         _______ _______ _______ _____ _____    ______ ____
ROOT
ATOM      1  C   UNL     1      -1.834  48.837  66.126  0.00  0.00    +0.000 C 
ATOM      2  C   UNL     1      -0.329  48.434  66.132  0.00  0.00    +0.000 C 
ATOM      3  C   UNL     1       0.531  49.589  65.557  0.00  0.00    +0.000 C 
ATOM      4  C   UNL     1      -0.101  50.006  64.142  0.00  0.00    +0.000 C 
ATOM      5  C   UNL     1      -1.601  50.422  64.332  0.00  0.00    +0.000 C 
ATOM      6  O   UNL     1       0.534  50.698  66.456  0.00  0.00    +0.000 OA
ATOM      7  O   UNL     1      -2.279  49.273  64.835  0.00  0.00    +0.000 OA
ENDROOT
BRANCH   2  10
ATOM      8  C   UNL     1       0.901  47.310  67.928  0.00  0.00    +0.000 C 
ATOM      9  C   UNL     1       1.071  47.078  69.424  0.00  0.00    +0.000 C 
ATOM     10  N   UNL     1      -0.053  48.141  67.566  0.00  0.00    +0.000 NA
ATOM     11  O   UNL     1       1.627  46.744  67.107  0.00  0.00    +0.000 OA
ENDBRANCH   2  10
BRANCH   5  12
ATOM     12  C   UNL     1      -2.289  50.802  63.027  0.00  0.00    +0.000 C 
ATOM     13  O   UNL     1      -2.408  49.597  62.222  0.00  0.00    +0.000 OA
ENDBRANCH   5  12
BRANCH   4  14
ATOM     14  O   UNL     1       0.580  51.069  63.504  0.00  0.00    +0.000 OA
BRANCH  14  15
ATOM     15  C   UNL     1       1.078  50.786  62.214  0.00  0.00    +0.000 C 
ATOM     16  C   UNL     1       1.341  52.131  61.481  0.00  0.00    +0.000 C 
ATOM     17  C   UNL     1       2.322  52.019  60.317  0.00  0.00    +0.000 C 
ATOM     18  C   UNL     1       3.568  51.226  60.775  0.00  0.00    +0.000 C 
ATOM     19  C   UNL     1       3.110  49.800  61.309  0.00  0.00    +0.000 C 
ATOM     20  O   UNL     1       1.680  51.353  59.244  0.00  0.00    +0.000 OA
ATOM     21  O   UNL     1       4.434  51.129  59.677  0.00  0.00    +0.000 OA
ATOM     22  O   UNL     1       2.328  50.105  62.513  0.00  0.00    +0.000 OA
BRANCH  16  25
ATOM     23  C   UNL     1      -0.509  53.783  61.438  0.00  0.00    +0.000 C 
ATOM     24  C   UNL     1      -1.867  54.027  60.783  0.00  0.00    +0.000 C 
ATOM     25  N   UNL     1       0.053  52.660  61.049  0.00  0.00    +0.000 NA
ATOM     26  O   UNL     1      -0.026  54.553  62.238  0.00  0.00    +0.000 OA
ENDBRANCH  16  25
BRANCH  19  27
ATOM     27  C   UNL     1       4.303  48.866  61.710  0.00  0.00    +0.000 C 
BRANCH  27  28
ATOM     28  O   UNL     1       3.896  47.733  62.518  0.00  0.00    +0.000 OA
ATOM     29  C   UNL     1       4.492  46.552  62.256  0.00  0.00    +0.000 C 
ENDBRANCH  27  28
ENDBRANCH  19  27
ENDBRANCH  14  15
ENDBRANCH   4  14
BRANCH   1  30
ATOM     30  O   UNL     1      -2.570  47.691  66.490  0.00  0.00    +0.000 OA
BRANCH  30  34
ATOM     31  C   UNL     1      -5.307  46.604  68.639  0.00  0.00    +0.000 C 
ATOM     32  C   UNL     1      -5.963  47.827  67.964  0.00  0.00    +0.000 C 
ATOM     33  C   UNL     1      -4.990  48.218  66.852  0.00  0.00    +0.000 C 
ATOM     34  C   UNL     1      -3.612  47.854  67.435  0.00  0.00    +0.000 C 
ATOM     35  C   UNL     1      -3.950  46.454  67.943  0.00  0.00    +0.000 C 
ATOM     36  C   UNL     1      -7.305  46.027  67.689  0.00  0.00    +0.000 C 
ATOM     37  C   UNL     1      -8.398  43.819  67.674  0.00  0.00    +0.000 C 
ATOM     38  N   UNL     1      -7.187  47.331  67.420  0.00  0.00    -1.000 NA
ATOM     39  N   UNL     1      -8.281  45.222  67.202  0.00  0.00    +1.000 NA
ATOM     40  O   UNL     1      -5.125  49.626  66.655  0.00  0.00    +0.000 OA
ATOM     41  O   UNL     1      -6.216  45.512  68.357  0.00  0.00    +0.000 OA
BRANCH  35  42
ATOM     42  C   UNL     1      -2.854  45.837  68.896  0.00  0.00    +0.000 C 
ATOM     43  O   UNL     1      -3.451  44.828  69.752  0.00  0.00    +0.000 OA
ENDBRANCH  35  42
ENDBRANCH  30  34
ENDBRANCH   1  30
TORSDOF 10
ENDMDL
MODEL 6
REMARK VINA RESULT:      -8.1      3.874      5.608
REMARK  Name = NONAME
REMARK  10 active torsions:
REMARK  status: ('A' for Active; 'I' for Inactive)
REMARK    1  A    between atoms: C_1  and  O_41
REMARK    2  A    between atoms: C_2  and  N_9
REMARK    3  A    between atoms: C_4  and  O_11
REMARK    4  A    between atoms: C_5  and  C_6
REMARK    5  A    between atoms: O_11  and  C_15
REMARK    6  A    between atoms: C_16  and  N_23
REMARK    7  A    between atoms: C_19  and  C_20
REMARK    8  A    between atoms: C_20  and  O_27
REMARK    9  A    between atoms: C_33  and  O_41
REMARK   10  A    between atoms: C_34  and  C_35
REMARK                            x       y       z     vdW  Elec       q    Type
REMARK                         _______ _______ _______ _____ _____    ______ ____
ROOT
ATOM      1  C   UNL     1      -4.586  49.353  66.694  0.00  0.00    +0.000 C 
ATOM      2  C   UNL     1      -3.400  50.300  66.341  0.00  0.00    +0.000 C 
ATOM      3  C   UNL     1      -3.573  50.850  64.901  0.00  0.00    +0.000 C 
ATOM      4  C   UNL     1      -3.814  49.596  63.929  0.00  0.00    +0.000 C 
ATOM      5  C   UNL     1      -5.068  48.786  64.408  0.00  0.00    +0.000 C 
ATOM      6  O   UNL     1      -4.678  51.753  64.847  0.00  0.00    +0.000 OA
ATOM      7  O   UNL     1      -4.770  48.318  65.721  0.00  0.00    +0.000 OA
ENDROOT
BRANCH   2  10
ATOM      8  C   UNL     1      -2.377  51.884  67.905  0.00  0.00    +0.000 C 
ATOM      9  C   UNL     1      -2.578  52.934  68.990  0.00  0.00    +0.000 C 
ATOM     10  N   UNL     1      -3.467  51.351  67.394  0.00  0.00    +0.000 NA
ATOM     11  O   UNL     1      -1.248  51.558  67.531  0.00  0.00    +0.000 OA
ENDBRANCH   2  10
BRANCH   5  12
ATOM     12  C   UNL     1      -5.350  47.555  63.556  0.00  0.00    +0.000 C 
ATOM     13  O   UNL     1      -5.922  46.538  64.425  0.00  0.00    +0.000 OA
ENDBRANCH   5  12
BRANCH   4  14
ATOM     14  O   UNL     1      -4.004  49.954  62.574  0.00  0.00    +0.000 OA
BRANCH  14  15
ATOM     15  C   UNL     1      -2.914  50.604  61.957  0.00  0.00    +0.000 C 
ATOM     16  C   UNL     1      -3.217  52.127  61.897  0.00  0.00    +0.000 C 
ATOM     17  C   UNL     1      -1.975  52.999  61.735  0.00  0.00    +0.000 C 
ATOM     18  C   UNL     1      -0.900  52.548  62.751  0.00  0.00    +0.000 C 
ATOM     19  C   UNL     1      -0.582  51.006  62.522  0.00  0.00    +0.000 C 
ATOM     20  O   UNL     1      -1.492  52.861  60.411  0.00  0.00    +0.000 OA
ATOM     21  O   UNL     1       0.229  53.357  62.559  0.00  0.00    +0.000 OA
ATOM     22  O   UNL     1      -1.830  50.327  62.888  0.00  0.00    +0.000 OA
BRANCH  16  25
ATOM     23  C   UNL     1      -5.451  52.628  60.940  0.00  0.00    +0.000 C 
ATOM     24  C   UNL     1      -6.155  52.792  59.595  0.00  0.00    +0.000 C 
ATOM     25  N   UNL     1      -4.172  52.347  60.818  0.00  0.00    +0.000 NA
ATOM     26  O   UNL     1      -6.032  52.739  61.996  0.00  0.00    +0.000 OA
ENDBRANCH  16  25
BRANCH  19  27
ATOM     27  C   UNL     1       0.571  50.461  63.433  0.00  0.00    +0.000 C 
BRANCH  27  28
ATOM     28  O   UNL     1       0.373  49.084  63.843  0.00  0.00    +0.000 OA
ATOM     29  C   UNL     1       0.629  48.789  65.133  0.00  0.00    +0.000 C 
ENDBRANCH  27  28
ENDBRANCH  19  27
ENDBRANCH  14  15
ENDBRANCH   4  14
BRANCH   1  30
ATOM     30  O   UNL     1      -4.280  48.754  67.934  0.00  0.00    +0.000 OA
BRANCH  30  34
ATOM     31  C   UNL     1      -3.309  45.404  68.995  0.00  0.00    +0.000 C 
ATOM     32  C   UNL     1      -1.930  46.096  68.988  0.00  0.00    +0.000 C 
ATOM     33  C   UNL     1      -2.246  47.579  68.798  0.00  0.00    +0.000 C 
ATOM     34  C   UNL     1      -3.507  47.567  67.915  0.00  0.00    +0.000 C 
ATOM     35  C   UNL     1      -4.309  46.524  68.690  0.00  0.00    +0.000 C 
ATOM     36  C   UNL     1      -2.261  45.135  71.009  0.00  0.00    +0.000 C 
ATOM     37  C   UNL     1      -3.077  43.929  72.997  0.00  0.00    +0.000 C 
ATOM     38  N   UNL     1      -1.392  45.851  70.288  0.00  0.00    -1.000 NA
ATOM     39  N   UNL     1      -2.121  44.847  72.326  0.00  0.00    +1.000 NA
ATOM     40  O   UNL     1      -1.132  48.159  68.119  0.00  0.00    +0.000 OA
ATOM     41  O   UNL     1      -3.435  44.877  70.338  0.00  0.00    +0.000 OA
BRANCH  35  42
ATOM     42  C   UNL     1      -5.583  45.996  67.922  0.00  0.00    +0.000 C 
ATOM     43  O   UNL     1      -6.783  46.586  68.487  0.00  0.00    +0.000 OA
ENDBRANCH  35  42
ENDBRANCH  30  34
ENDBRANCH   1  30
TORSDOF 10
ENDMDL
MODEL 7
REMARK VINA RESULT:      -7.6      2.185      3.506
REMARK  Name = NONAME
REMARK  10 active torsions:
REMARK  status: ('A' for Active; 'I' for Inactive)
REMARK    1  A    between atoms: C_1  and  O_41
REMARK    2  A    between atoms: C_2  and  N_9
REMARK    3  A    between atoms: C_4  and  O_11
REMARK    4  A    between atoms: C_5  and  C_6
REMARK    5  A    between atoms: O_11  and  C_15
REMARK    6  A    between atoms: C_16  and  N_23
REMARK    7  A    between atoms: C_19  and  C_20
REMARK    8  A    between atoms: C_20  and  O_27
REMARK    9  A    between atoms: C_33  and  O_41
REMARK   10  A    between atoms: C_34  and  C_35
REMARK                            x       y       z     vdW  Elec       q    Type
REMARK                         _______ _______ _______ _____ _____    ______ ____
ROOT
ATOM      1  C   UNL     1      -2.239  50.736  65.213  0.00  0.00    +0.000 C 
ATOM      2  C   UNL     1      -2.366  51.541  63.886  0.00  0.00    +0.000 C 
ATOM      3  C   UNL     1      -1.525  50.863  62.773  0.00  0.00    +0.000 C 
ATOM      4  C   UNL     1      -0.043  50.647  63.351  0.00  0.00    +0.000 C 
ATOM      5  C   UNL     1      -0.103  49.783  64.658  0.00  0.00    +0.000 C 
ATOM      6  O   UNL     1      -2.110  49.615  62.402  0.00  0.00    +0.000 OA
ATOM      7  O   UNL     1      -0.875  50.525  65.598  0.00  0.00    +0.000 OA
ENDROOT
BRANCH   2  10
ATOM      8  C   UNL     1      -4.352  52.245  62.635  0.00  0.00    +0.000 C 
ATOM      9  C   UNL     1      -5.865  52.171  62.471  0.00  0.00    +0.000 C 
ATOM     10  N   UNL     1      -3.831  51.535  63.613  0.00  0.00    +0.000 NA
ATOM     11  O   UNL     1      -3.661  52.936  61.883  0.00  0.00    +0.000 OA
ENDBRANCH   2  10
BRANCH   5  12
ATOM     12  C   UNL     1       1.264  49.557  65.292  0.00  0.00    +0.000 C 
ATOM     13  O   UNL     1       1.050  49.210  66.689  0.00  0.00    +0.000 OA
ENDBRANCH   5  12
BRANCH   4  14
ATOM     14  O   UNL     1       0.838  50.019  62.439  0.00  0.00    +0.000 OA
BRANCH  14  15
ATOM     15  C   UNL     1       1.779  50.868  61.819  0.00  0.00    +0.000 C 
ATOM     16  C   UNL     1       2.562  50.045  60.758  0.00  0.00    +0.000 C 
ATOM     17  C   UNL     1       3.232  50.898  59.684  0.00  0.00    +0.000 C 
ATOM     18  C   UNL     1       2.214  51.929  59.145  0.00  0.00    +0.000 C 
ATOM     19  C   UNL     1       1.673  52.808  60.355  0.00  0.00    +0.000 C 
ATOM     20  O   UNL     1       4.347  51.558  60.257  0.00  0.00    +0.000 OA
ATOM     21  O   UNL     1       2.870  52.704  58.177  0.00  0.00    +0.000 OA
ATOM     22  O   UNL     1       0.922  51.855  61.180  0.00  0.00    +0.000 OA
BRANCH  16  25
ATOM     23  C   UNL     1       3.938  48.013  61.127  0.00  0.00    +0.000 C 
ATOM     24  C   UNL     1       4.961  47.434  62.102  0.00  0.00    +0.000 C 
ATOM     25  N   UNL     1       3.530  49.216  61.467  0.00  0.00    +0.000 NA
ATOM     26  O   UNL     1       3.551  47.405  60.154  0.00  0.00    +0.000 OA
ENDBRANCH  16  25
BRANCH  19  27
ATOM     27  C   UNL     1       0.705  53.958  59.912  0.00  0.00    +0.000 C 
BRANCH  27  28
ATOM     28  O   UNL     1       1.189  55.280  60.263  0.00  0.00    +0.000 OA
ATOM     29  C   UNL     1       0.302  56.123  60.831  0.00  0.00    +0.000 C 
ENDBRANCH  27  28
ENDBRANCH  19  27
ENDBRANCH  14  15
ENDBRANCH   4  14
BRANCH   1  30
ATOM     30  O   UNL     1      -2.877  51.494  66.218  0.00  0.00    +0.000 OA
BRANCH  30  34
ATOM     31  C   UNL     1      -2.220  50.116  69.529  0.00  0.00    +0.000 C 
ATOM     32  C   UNL     1      -2.971  48.931  68.887  0.00  0.00    +0.000 C 
ATOM     33  C   UNL     1      -3.078  49.301  67.408  0.00  0.00    +0.000 C 
ATOM     34  C   UNL     1      -3.200  50.835  67.430  0.00  0.00    +0.000 C 
ATOM     35  C   UNL     1      -2.056  51.134  68.395  0.00  0.00    +0.000 C 
ATOM     36  C   UNL     1      -0.997  48.194  69.712  0.00  0.00    +0.000 C 
ATOM     37  C   UNL     1       1.209  47.891  70.767  0.00  0.00    +0.000 C 
ATOM     38  N   UNL     1      -2.106  47.809  69.071  0.00  0.00    -1.000 NA
ATOM     39  N   UNL     1       0.086  47.407  69.924  0.00  0.00    +1.000 NA
ATOM     40  O   UNL     1      -4.265  48.684  66.909  0.00  0.00    +0.000 OA
ATOM     41  O   UNL     1      -0.964  49.546  69.970  0.00  0.00    +0.000 OA
BRANCH  35  42
ATOM     42  C   UNL     1      -2.037  52.621  68.925  0.00  0.00    +0.000 C 
ATOM     43  O   UNL     1      -0.874  53.318  68.407  0.00  0.00    +0.000 OA
ENDBRANCH  35  42
ENDBRANCH  30  34
ENDBRANCH   1  30
TORSDOF 10
ENDMDL
MODEL 8
REMARK VINA RESULT:      -7.5      3.812      9.259
REMARK  Name = NONAME
REMARK  10 active torsions:
REMARK  status: ('A' for Active; 'I' for Inactive)
REMARK    1  A    between atoms: C_1  and  O_41
REMARK    2  A    between atoms: C_2  and  N_9
REMARK    3  A    between atoms: C_4  and  O_11
REMARK    4  A    between atoms: C_5  and  C_6
REMARK    5  A    between atoms: O_11  and  C_15
REMARK    6  A    between atoms: C_16  and  N_23
REMARK    7  A    between atoms: C_19  and  C_20
REMARK    8  A    between atoms: C_20  and  O_27
REMARK    9  A    between atoms: C_33  and  O_41
REMARK   10  A    between atoms: C_34  and  C_35
REMARK                            x       y       z     vdW  Elec       q    Type
REMARK                         _______ _______ _______ _____ _____    ______ ____
ROOT
ATOM      1  C   UNL     1       1.320  50.495  62.667  0.00  0.00    +0.000 C 
ATOM      2  C   UNL     1      -0.081  51.172  62.735  0.00  0.00    +0.000 C 
ATOM      3  C   UNL     1      -0.705  50.956  64.138  0.00  0.00    +0.000 C 
ATOM      4  C   UNL     1      -0.643  49.385  64.459  0.00  0.00    +0.000 C 
ATOM      5  C   UNL     1       0.841  48.886  64.389  0.00  0.00    +0.000 C 
ATOM      6  O   UNL     1       0.015  51.703  65.119  0.00  0.00    +0.000 OA
ATOM      7  O   UNL     1       1.282  49.115  63.052  0.00  0.00    +0.000 OA
ENDROOT
BRANCH   2  10
ATOM      8  C   UNL     1      -0.659  53.350  61.775  0.00  0.00    +0.000 C 
ATOM      9  C   UNL     1      -0.240  54.788  61.497  0.00  0.00    +0.000 C 
ATOM     10  N   UNL     1       0.206  52.599  62.422  0.00  0.00    +0.000 NA
ATOM     11  O   UNL     1      -1.756  52.922  61.408  0.00  0.00    +0.000 OA
ENDBRANCH   2  10
BRANCH   5  12
ATOM     12  C   UNL     1       0.987  47.393  64.650  0.00  0.00    +0.000 C 
ATOM     13  O   UNL     1       2.198  46.943  63.981  0.00  0.00    +0.000 OA
ENDBRANCH   5  12
BRANCH   4  14
ATOM     14  O   UNL     1      -1.171  49.041  65.726  0.00  0.00    +0.000 OA
BRANCH  14  15
ATOM     15  C   UNL     1      -2.290  49.792  66.143  0.00  0.00    +0.000 C 
ATOM     16  C   UNL     1      -3.505  48.832  66.279  0.00  0.00    +0.000 C 
ATOM     17  C   UNL     1      -4.618  49.366  67.177  0.00  0.00    +0.000 C 
ATOM     18  C   UNL     1      -4.001  49.890  68.495  0.00  0.00    +0.000 C 
ATOM     19  C   UNL     1      -2.920  51.007  68.155  0.00  0.00    +0.000 C 
ATOM     20  O   UNL     1      -5.290  50.410  66.497  0.00  0.00    +0.000 OA
ATOM     21  O   UNL     1      -5.049  50.388  69.283  0.00  0.00    +0.000 OA
ATOM     22  O   UNL     1      -1.863  50.275  67.447  0.00  0.00    +0.000 OA
BRANCH  16  25
ATOM     23  C   UNL     1      -4.832  47.591  64.590  0.00  0.00    +0.000 C 
ATOM     24  C   UNL     1      -5.123  47.571  63.091  0.00  0.00    +0.000 C 
ATOM     25  N   UNL     1      -3.992  48.541  64.936  0.00  0.00    +0.000 NA
ATOM     26  O   UNL     1      -5.326  46.796  65.358  0.00  0.00    +0.000 OA
ENDBRANCH  16  25
BRANCH  19  27
ATOM     27  C   UNL     1      -2.298  51.685  69.423  0.00  0.00    +0.000 C 
BRANCH  27  28
ATOM     28  O   UNL     1      -1.437  52.809  69.107  0.00  0.00    +0.000 OA
ATOM     29  C   UNL     1      -2.036  54.003  68.922  0.00  0.00    +0.000 C 
ENDBRANCH  27  28
ENDBRANCH  19  27
ENDBRANCH  14  15
ENDBRANCH   4  14
BRANCH   1  30
ATOM     30  O   UNL     1       1.752  50.573  61.326  0.00  0.00    +0.000 OA
BRANCH  30  34
ATOM     31  C   UNL     1       4.666  51.446  59.317  0.00  0.00    +0.000 C 
ATOM     32  C   UNL     1       5.246  50.279  60.141  0.00  0.00    +0.000 C 
ATOM     33  C   UNL     1       4.035  49.668  60.845  0.00  0.00    +0.000 C 
ATOM     34  C   UNL     1       3.116  50.877  61.093  0.00  0.00    +0.000 C 
ATOM     35  C   UNL     1       3.183  51.495  59.699  0.00  0.00    +0.000 C 
ATOM     36  C   UNL     1       5.583  49.866  57.943  0.00  0.00    +0.000 C 
ATOM     37  C   UNL     1       5.720  49.886  55.483  0.00  0.00    +0.000 C 
ATOM     38  N   UNL     1       5.782  49.377  59.172  0.00  0.00    -1.000 NA
ATOM     39  N   UNL     1       5.848  49.199  56.793  0.00  0.00    +1.000 NA
ATOM     40  O   UNL     1       4.506  49.103  62.070  0.00  0.00    +0.000 OA
ATOM     41  O   UNL     1       4.887  51.054  57.940  0.00  0.00    +0.000 OA
BRANCH  35  42
ATOM     42  C   UNL     1       2.591  52.956  59.617  0.00  0.00    +0.000 C 
ATOM     43  O   UNL     1       1.314  52.937  58.928  0.00  0.00    +0.000 OA
ENDBRANCH  35  42
ENDBRANCH  30  34
ENDBRANCH   1  30
TORSDOF 10
ENDMDL
MODEL 9
REMARK VINA RESULT:      -7.5      2.567      5.060
REMARK  Name = NONAME
REMARK  10 active torsions:
REMARK  status: ('A' for Active; 'I' for Inactive)
REMARK    1  A    between atoms: C_1  and  O_41
REMARK    2  A    between atoms: C_2  and  N_9
REMARK    3  A    between atoms: C_4  and  O_11
REMARK    4  A    between atoms: C_5  and  C_6
REMARK    5  A    between atoms: O_11  and  C_15
REMARK    6  A    between atoms: C_16  and  N_23
REMARK    7  A    between atoms: C_19  and  C_20
REMARK    8  A    between atoms: C_20  and  O_27
REMARK    9  A    between atoms: C_33  and  O_41
REMARK   10  A    between atoms: C_34  and  C_35
REMARK                            x       y       z     vdW  Elec       q    Type
REMARK                         _______ _______ _______ _____ _____    ______ ____
ROOT
ATOM      1  C   UNL     1      -2.431  50.285  65.453  0.00  0.00    +0.000 C 
ATOM      2  C   UNL     1      -2.620  50.286  63.906  0.00  0.00    +0.000 C 
ATOM      3  C   UNL     1      -1.258  50.534  63.207  0.00  0.00    +0.000 C 
ATOM      4  C   UNL     1      -0.612  51.851  63.859  0.00  0.00    +0.000 C 
ATOM      5  C   UNL     1      -0.456  51.655  65.406  0.00  0.00    +0.000 C 
ATOM      6  O   UNL     1      -0.400  49.408  63.383  0.00  0.00    +0.000 OA
ATOM      7  O   UNL     1      -1.770  51.465  65.925  0.00  0.00    +0.000 OA
ENDROOT
BRANCH   2  10
ATOM      8  C   UNL     1      -4.280  48.800  62.886  0.00  0.00    +0.000 C 
ATOM      9  C   UNL     1      -4.786  47.377  62.689  0.00  0.00    +0.000 C 
ATOM     10  N   UNL     1      -3.200  48.943  63.625  0.00  0.00    +0.000 NA
ATOM     11  O   UNL     1      -4.858  49.762  62.375  0.00  0.00    +0.000 OA
ENDBRANCH   2  10
BRANCH   5  12
ATOM     12  C   UNL     1       0.123  52.875  66.112  0.00  0.00    +0.000 C 
ATOM     13  O   UNL     1       0.089  52.616  67.542  0.00  0.00    +0.000 OA
ENDBRANCH   5  12
BRANCH   4  14
ATOM     14  O   UNL     1       0.652  52.191  63.321  0.00  0.00    +0.000 OA
BRANCH  14  15
ATOM     15  C   UNL     1       0.936  51.655  62.048  0.00  0.00    +0.000 C 
ATOM     16  C   UNL     1       1.156  52.831  61.055  0.00  0.00    +0.000 C 
ATOM     17  C   UNL     1       1.944  52.447  59.806  0.00  0.00    +0.000 C 
ATOM     18  C   UNL     1       3.202  51.650  60.224  0.00  0.00    +0.000 C 
ATOM     19  C   UNL     1       2.756  50.375  61.064  0.00  0.00    +0.000 C 
ATOM     20  O   UNL     1       1.116  51.659  58.970  0.00  0.00    +0.000 OA
ATOM     21  O   UNL     1       3.889  51.300  59.052  0.00  0.00    +0.000 OA
ATOM     22  O   UNL     1       2.180  50.941  62.289  0.00  0.00    +0.000 OA
BRANCH  16  25
ATOM     23  C   UNL     1      -0.651  54.530  61.103  0.00  0.00    +0.000 C 
ATOM     24  C   UNL     1      -2.057  54.783  60.562  0.00  0.00    +0.000 C 
ATOM     25  N   UNL     1      -0.154  53.376  60.717  0.00  0.00    +0.000 NA
ATOM     26  O   UNL     1      -0.079  55.320  61.820  0.00  0.00    +0.000 OA
ENDBRANCH  16  25
BRANCH  19  27
ATOM     27  C   UNL     1       3.946  49.435  61.457  0.00  0.00    +0.000 C 
BRANCH  27  28
ATOM     28  O   UNL     1       3.542  48.057  61.662  0.00  0.00    +0.000 OA
ATOM     29  C   UNL     1       3.225  47.695  62.922  0.00  0.00    +0.000 C 
ENDBRANCH  27  28
ENDBRANCH  19  27
ENDBRANCH  14  15
ENDBRANCH   4  14
BRANCH   1  30
ATOM     30  O   UNL     1      -3.719  50.233  66.025  0.00  0.00    +0.000 OA
BRANCH  30  34
ATOM     31  C   UNL     1      -2.932  48.906  69.329  0.00  0.00    +0.000 C 
ATOM     32  C   UNL     1      -3.139  47.590  68.552  0.00  0.00    +0.000 C 
ATOM     33  C   UNL     1      -3.229  48.020  67.088  0.00  0.00    +0.000 C 
ATOM     34  C   UNL     1      -3.898  49.404  67.161  0.00  0.00    +0.000 C 
ATOM     35  C   UNL     1      -3.037  50.007  68.268  0.00  0.00    +0.000 C 
ATOM     36  C   UNL     1      -1.121  47.532  69.574  0.00  0.00    +0.000 C 
ATOM     37  C   UNL     1       0.933  47.942  70.871  0.00  0.00    +0.000 C 
ATOM     38  N   UNL     1      -1.950  46.834  68.789  0.00  0.00    -1.000 NA
ATOM     39  N   UNL     1       0.147  47.163  69.880  0.00  0.00    +1.000 NA
ATOM     40  O   UNL     1      -4.060  47.066  66.424  0.00  0.00    +0.000 OA
ATOM     41  O   UNL     1      -1.603  48.782  69.892  0.00  0.00    +0.000 OA
BRANCH  35  42
ATOM     42  C   UNL     1      -3.607  51.355  68.860  0.00  0.00    +0.000 C 
ATOM     43  O   UNL     1      -2.515  52.259  69.176  0.00  0.00    +0.000 OA
ENDBRANCH  35  42
ENDBRANCH  30  34
ENDBRANCH   1  30
TORSDOF 10
ENDMDL
