MODEL 1
REMARK VINA RESULT:      -9.5      0.000      0.000
REMARK  Name = ZINC69869800
REMARK  2 active torsions:
REMARK  status: ('A' for Active; 'I' for Inactive)
REMARK    1  A    between atoms: C_5  and  C_6
REMARK    2  A    between atoms: C_6  and  N_7
REMARK                            x       y       z     vdW  Elec       q    Type
REMARK                         _______ _______ _______ _____ _____    ______ ____
ROOT
ATOM      1  C   UNL     1       1.058  47.606  65.087  0.00  0.00    +0.000 C 
ENDROOT
BRANCH   1   2
ATOM      2  N   UNL     1       1.209  48.153  66.509  0.00  0.00    +0.000 N 
ATOM      3  C   UNL     1       1.487  47.076  67.525  0.00  0.00    +0.000 C 
ATOM      4  C   UNL     1       1.516  47.590  68.964  0.00  0.00    +0.000 C 
ATOM      5  C   UNL     1       0.354  48.463  69.296  0.00  0.00    +0.000 A 
ATOM      6  C   UNL     1      -0.122  48.607  70.584  0.00  0.00    +0.000 A 
ATOM      7  N   UNL     1      -1.140  49.420  70.908  0.00  0.00    +0.000 NA
ATOM      8  C   UNL     1      -1.688  50.117  69.909  0.00  0.00    +0.000 A 
ATOM      9  N   UNL     1      -1.301  50.062  68.626  0.00  0.00    +0.000 NA
ATOM     10  C   UNL     1      -0.282  49.225  68.335  0.00  0.00    +0.000 A 
ATOM     11  C   UNL     1       0.101  49.127  66.885  0.00  0.00    +0.000 C 
ATOM     12  H   UNL     1       2.053  48.739  66.482  0.00  0.00    +0.000 HD
ENDBRANCH   1   2
BRANCH   1  17
ATOM     13  C   UNL     1       4.997  46.728  61.630  0.00  0.00    +0.000 A 
ATOM     14  C   UNL     1       4.418  45.938  62.616  0.00  0.00    +0.000 A 
ATOM     15  C   UNL     1       3.367  46.445  63.392  0.00  0.00    +0.000 A 
ATOM     16  C   UNL     1       2.850  47.752  63.207  0.00  0.00    +0.000 A 
ATOM     17  C   UNL     1       1.781  48.334  63.965  0.00  0.00    +0.000 A 
ATOM     18  C   UNL     1       1.401  49.664  63.693  0.00  0.00    +0.000 A 
ATOM     19  C   UNL     1       2.006  50.398  62.681  0.00  0.00    +0.000 A 
ATOM     20  C   UNL     1       3.034  49.840  61.934  0.00  0.00    +0.000 A 
ATOM     21  C   UNL     1       3.462  48.534  62.185  0.00  0.00    +0.000 A 
ATOM     22  C   UNL     1       4.521  48.016  61.418  0.00  0.00    +0.000 A 
ENDBRANCH   1  17
TORSDOF 2
ENDMDL
MODEL 2
REMARK VINA RESULT:      -9.3      0.715      2.595
REMARK  Name = ZINC69869800
REMARK  2 active torsions:
REMARK  status: ('A' for Active; 'I' for Inactive)
REMARK    1  A    between atoms: C_5  and  C_6
REMARK    2  A    between atoms: C_6  and  N_7
REMARK                            x       y       z     vdW  Elec       q    Type
REMARK                         _______ _______ _______ _____ _____    ______ ____
ROOT
ATOM      1  C   UNL     1       0.987  47.590  65.012  0.00  0.00    +0.000 C 
ENDROOT
BRANCH   1   2
ATOM      2  N   UNL     1       1.149  48.167  66.421  0.00  0.00    +0.000 N 
ATOM      3  C   UNL     1       1.460  47.115  67.453  0.00  0.00    +0.000 C 
ATOM      4  C   UNL     1       1.502  47.657  68.881  0.00  0.00    +0.000 C 
ATOM      5  C   UNL     1       0.330  48.517  69.214  0.00  0.00    +0.000 A 
ATOM      6  C   UNL     1      -0.129  48.679  70.506  0.00  0.00    +0.000 A 
ATOM      7  N   UNL     1      -1.155  49.481  70.830  0.00  0.00    +0.000 NA
ATOM      8  C   UNL     1      -1.729  50.150  69.826  0.00  0.00    +0.000 A 
ATOM      9  N   UNL     1      -1.360  50.077  68.538  0.00  0.00    +0.000 NA
ATOM     10  C   UNL     1      -0.332  49.251  68.248  0.00  0.00    +0.000 A 
ATOM     11  C   UNL     1       0.032  49.131  66.795  0.00  0.00    +0.000 C 
ATOM     12  H   UNL     1       1.983  48.766  66.370  0.00  0.00    +0.000 HD
ENDBRANCH   1   2
BRANCH   1  17
ATOM     13  C   UNL     1       1.638  51.758  61.781  0.00  0.00    +0.000 A 
ATOM     14  C   UNL     1       0.691  51.461  62.753  0.00  0.00    +0.000 A 
ATOM     15  C   UNL     1       0.773  50.259  63.467  0.00  0.00    +0.000 A 
ATOM     16  C   UNL     1       1.807  49.314  63.244  0.00  0.00    +0.000 A 
ATOM     17  C   UNL     1       1.949  48.065  63.935  0.00  0.00    +0.000 A 
ATOM     18  C   UNL     1       3.008  47.208  63.576  0.00  0.00    +0.000 A 
ATOM     19  C   UNL     1       3.936  47.568  62.606  0.00  0.00    +0.000 A 
ATOM     20  C   UNL     1       3.813  48.779  61.940  0.00  0.00    +0.000 A 
ATOM     21  C   UNL     1       2.764  49.651  62.244  0.00  0.00    +0.000 A 
ATOM     22  C   UNL     1       2.666  50.858  61.529  0.00  0.00    +0.000 A 
ENDBRANCH   1  17
TORSDOF 2
ENDMDL
MODEL 3
REMARK VINA RESULT:      -9.2      1.858      7.263
REMARK  Name = ZINC69869800
REMARK  2 active torsions:
REMARK  status: ('A' for Active; 'I' for Inactive)
REMARK    1  A    between atoms: C_5  and  C_6
REMARK    2  A    between atoms: C_6  and  N_7
REMARK                            x       y       z     vdW  Elec       q    Type
REMARK                         _______ _______ _______ _____ _____    ______ ____
ROOT
ATOM      1  C   UNL     1      -0.406  48.083  66.056  0.00  0.00    +0.000 C 
ENDROOT
BRANCH   1   2
ATOM      2  N   UNL     1       0.889  48.465  65.335  0.00  0.00    +0.000 N 
ATOM      3  C   UNL     1       0.672  49.464  64.229  0.00  0.00    +0.000 C 
ATOM      4  C   UNL     1       1.934  49.760  63.420  0.00  0.00    +0.000 C 
ATOM      5  C   UNL     1       2.662  48.528  63.001  0.00  0.00    +0.000 A 
ATOM      6  C   UNL     1       3.471  48.487  61.882  0.00  0.00    +0.000 A 
ATOM      7  N   UNL     1       4.166  47.400  61.513  0.00  0.00    +0.000 NA
ATOM      8  C   UNL     1       4.054  46.325  62.299  0.00  0.00    +0.000 A 
ATOM      9  N   UNL     1       3.307  46.256  63.411  0.00  0.00    +0.000 NA
ATOM     10  C   UNL     1       2.612  47.365  63.744  0.00  0.00    +0.000 A 
ATOM     11  C   UNL     1       1.731  47.254  64.958  0.00  0.00    +0.000 C 
ATOM     12  H   UNL     1       1.457  48.948  66.043  0.00  0.00    +0.000 HD
ENDBRANCH   1   2
BRANCH   1  17
ATOM     13  C   UNL     1       1.603  47.470  70.936  0.00  0.00    +0.000 A 
ATOM     14  C   UNL     1       1.924  46.902  69.710  0.00  0.00    +0.000 A 
ATOM     15  C   UNL     1       1.207  47.264  68.562  0.00  0.00    +0.000 A 
ATOM     16  C   UNL     1       0.152  48.211  68.594  0.00  0.00    +0.000 A 
ATOM     17  C   UNL     1      -0.623  48.624  67.461  0.00  0.00    +0.000 A 
ATOM     18  C   UNL     1      -1.669  49.548  67.654  0.00  0.00    +0.000 A 
ATOM     19  C   UNL     1      -1.931  50.096  68.904  0.00  0.00    +0.000 A 
ATOM     20  C   UNL     1      -1.178  49.711  70.005  0.00  0.00    +0.000 A 
ATOM     21  C   UNL     1      -0.147  48.779  69.866  0.00  0.00    +0.000 A 
ATOM     22  C   UNL     1       0.575  48.402  71.012  0.00  0.00    +0.000 A 
ENDBRANCH   1  17
TORSDOF 2
ENDMDL
MODEL 4
REMARK VINA RESULT:      -8.8      3.538      6.475
REMARK  Name = ZINC69869800
REMARK  2 active torsions:
REMARK  status: ('A' for Active; 'I' for Inactive)
REMARK    1  A    between atoms: C_5  and  C_6
REMARK    2  A    between atoms: C_6  and  N_7
REMARK                            x       y       z     vdW  Elec       q    Type
REMARK                         _______ _______ _______ _____ _____    ______ ____
ROOT
ATOM      1  C   UNL     1      -1.882  50.066  67.971  0.00  0.00    +0.000 C 
ENDROOT
BRANCH   1   2
ATOM      2  N   UNL     1      -3.246  49.453  67.641  0.00  0.00    +0.000 N 
ATOM      3  C   UNL     1      -4.384  50.139  68.352  0.00  0.00    +0.000 C 
ATOM      4  C   UNL     1      -5.736  49.460  68.131  0.00  0.00    +0.000 C 
ATOM      5  C   UNL     1      -5.687  47.983  68.329  0.00  0.00    +0.000 A 
ATOM      6  C   UNL     1      -6.795  47.248  68.701  0.00  0.00    +0.000 A 
ATOM      7  N   UNL     1      -6.781  45.913  68.843  0.00  0.00    +0.000 NA
ATOM      8  C   UNL     1      -5.621  45.298  68.593  0.00  0.00    +0.000 A 
ATOM      9  N   UNL     1      -4.489  45.911  68.217  0.00  0.00    +0.000 NA
ATOM     10  C   UNL     1      -4.537  47.255  68.096  0.00  0.00    +0.000 A 
ATOM     11  C   UNL     1      -3.246  47.934  67.734  0.00  0.00    +0.000 C 
ATOM     12  H   UNL     1      -3.387  49.638  66.640  0.00  0.00    +0.000 HD
ENDBRANCH   1   2
BRANCH   1  17
ATOM     13  C   UNL     1       1.709  47.406  70.845  0.00  0.00    +0.000 A 
ATOM     14  C   UNL     1       0.591  48.154  71.196  0.00  0.00    +0.000 A 
ATOM     15  C   UNL     1      -0.191  48.753  70.200  0.00  0.00    +0.000 A 
ATOM     16  C   UNL     1       0.108  48.621  68.820  0.00  0.00    +0.000 A 
ATOM     17  C   UNL     1      -0.646  49.209  67.751  0.00  0.00    +0.000 A 
ATOM     18  C   UNL     1      -0.203  49.023  66.426  0.00  0.00    +0.000 A 
ATOM     19  C   UNL     1       0.913  48.249  66.136  0.00  0.00    +0.000 A 
ATOM     20  C   UNL     1       1.643  47.667  67.164  0.00  0.00    +0.000 A 
ATOM     21  C   UNL     1       1.257  47.844  68.495  0.00  0.00    +0.000 A 
ATOM     22  C   UNL     1       2.038  47.254  69.504  0.00  0.00    +0.000 A 
ENDBRANCH   1  17
TORSDOF 2
ENDMDL
MODEL 5
REMARK VINA RESULT:      -8.8      5.284      7.941
REMARK  Name = ZINC69869800
REMARK  2 active torsions:
REMARK  status: ('A' for Active; 'I' for Inactive)
REMARK    1  A    between atoms: C_5  and  C_6
REMARK    2  A    between atoms: C_6  and  N_7
REMARK                            x       y       z     vdW  Elec       q    Type
REMARK                         _______ _______ _______ _____ _____    ______ ____
ROOT
ATOM      1  C   UNL     1      -3.017  47.566  66.920  0.00  0.00    +0.000 C 
ENDROOT
BRANCH   1   2
ATOM      2  N   UNL     1      -2.602  48.707  67.853  0.00  0.00    +0.000 N 
ATOM      3  C   UNL     1      -3.762  49.574  68.270  0.00  0.00    +0.000 C 
ATOM      4  C   UNL     1      -3.346  50.789  69.099  0.00  0.00    +0.000 C 
ATOM      5  C   UNL     1      -2.201  51.537  68.505  0.00  0.00    +0.000 A 
ATOM      6  C   UNL     1      -1.992  52.883  68.738  0.00  0.00    +0.000 A 
ATOM      7  N   UNL     1      -0.945  53.563  68.246  0.00  0.00    +0.000 NA
ATOM      8  C   UNL     1      -0.075  52.868  67.508  0.00  0.00    +0.000 A 
ATOM      9  N   UNL     1      -0.174  51.560  67.226  0.00  0.00    +0.000 NA
ATOM     10  C   UNL     1      -1.247  50.911  67.727  0.00  0.00    +0.000 A 
ATOM     11  C   UNL     1      -1.378  49.461  67.354  0.00  0.00    +0.000 C 
ATOM     12  H   UNL     1      -2.274  48.246  68.711  0.00  0.00    +0.000 HD
ENDBRANCH   1   2
BRANCH   1  17
ATOM     13  C   UNL     1      -3.983  43.999  70.737  0.00  0.00    +0.000 A 
ATOM     14  C   UNL     1      -2.879  44.791  70.448  0.00  0.00    +0.000 A 
ATOM     15  C   UNL     1      -2.910  45.663  69.353  0.00  0.00    +0.000 A 
ATOM     16  C   UNL     1      -4.045  45.784  68.512  0.00  0.00    +0.000 A 
ATOM     17  C   UNL     1      -4.144  46.652  67.375  0.00  0.00    +0.000 A 
ATOM     18  C   UNL     1      -5.325  46.634  66.608  0.00  0.00    +0.000 A 
ATOM     19  C   UNL     1      -6.405  45.833  66.957  0.00  0.00    +0.000 A 
ATOM     20  C   UNL     1      -6.323  44.997  68.062  0.00  0.00    +0.000 A 
ATOM     21  C   UNL     1      -5.162  44.962  68.839  0.00  0.00    +0.000 A 
ATOM     22  C   UNL     1      -5.116  44.085  69.937  0.00  0.00    +0.000 A 
ENDBRANCH   1  17
TORSDOF 2
ENDMDL
MODEL 6
REMARK VINA RESULT:      -8.7      5.810      8.332
REMARK  Name = ZINC69869800
REMARK  2 active torsions:
REMARK  status: ('A' for Active; 'I' for Inactive)
REMARK    1  A    between atoms: C_5  and  C_6
REMARK    2  A    between atoms: C_6  and  N_7
REMARK                            x       y       z     vdW  Elec       q    Type
REMARK                         _______ _______ _______ _____ _____    ______ ____
ROOT
ATOM      1  C   UNL     1      -3.112  44.625  69.637  0.00  0.00    +0.000 C 
ENDROOT
BRANCH   1   2
ATOM      2  N   UNL     1      -3.784  44.658  71.013  0.00  0.00    +0.000 N 
ATOM      3  C   UNL     1      -2.822  44.390  72.141  0.00  0.00    +0.000 C 
ATOM      4  C   UNL     1      -3.499  44.296  73.508  0.00  0.00    +0.000 C 
ATOM      5  C   UNL     1      -4.703  43.417  73.505  0.00  0.00    +0.000 A 
ATOM      6  C   UNL     1      -5.152  42.768  74.638  0.00  0.00    +0.000 A 
ATOM      7  N   UNL     1      -6.256  42.006  74.664  0.00  0.00    +0.000 NA
ATOM      8  C   UNL     1      -6.937  41.903  73.519  0.00  0.00    +0.000 A 
ATOM      9  N   UNL     1      -6.599  42.495  72.364  0.00  0.00    +0.000 NA
ATOM     10  C   UNL     1      -5.475  43.244  72.372  0.00  0.00    +0.000 A 
ATOM     11  C   UNL     1      -5.075  43.852  71.057  0.00  0.00    +0.000 C 
ATOM     12  H   UNL     1      -4.097  45.629  71.134  0.00  0.00    +0.000 HD
ENDBRANCH   1   2
BRANCH   1  17
ATOM     13  C   UNL     1       0.840  48.174  69.764  0.00  0.00    +0.000 A 
ATOM     14  C   UNL     1       0.643  46.962  70.415  0.00  0.00    +0.000 A 
ATOM     15  C   UNL     1      -0.522  46.221  70.179  0.00  0.00    +0.000 A 
ATOM     16  C   UNL     1      -1.529  46.657  69.280  0.00  0.00    +0.000 A 
ATOM     17  C   UNL     1      -2.745  45.953  68.995  0.00  0.00    +0.000 A 
ATOM     18  C   UNL     1      -3.672  46.532  68.106  0.00  0.00    +0.000 A 
ATOM     19  C   UNL     1      -3.411  47.740  67.471  0.00  0.00    +0.000 A 
ATOM     20  C   UNL     1      -2.232  48.424  67.733  0.00  0.00    +0.000 A 
ATOM     21  C   UNL     1      -1.294  47.901  68.626  0.00  0.00    +0.000 A 
ATOM     22  C   UNL     1      -0.123  48.639  68.877  0.00  0.00    +0.000 A 
ENDBRANCH   1  17
TORSDOF 2
ENDMDL
MODEL 7
REMARK VINA RESULT:      -8.6      4.097      6.800
REMARK  Name = ZINC69869800
REMARK  2 active torsions:
REMARK  status: ('A' for Active; 'I' for Inactive)
REMARK    1  A    between atoms: C_5  and  C_6
REMARK    2  A    between atoms: C_6  and  N_7
REMARK                            x       y       z     vdW  Elec       q    Type
REMARK                         _______ _______ _______ _____ _____    ______ ____
ROOT
ATOM      1  C   UNL     1      -0.501  46.777  69.759  0.00  0.00    +0.000 C 
ENDROOT
BRANCH   1   2
ATOM      2  N   UNL     1      -1.659  45.823  69.452  0.00  0.00    +0.000 N 
ATOM      3  C   UNL     1      -2.787  46.491  68.710  0.00  0.00    +0.000 C 
ATOM      4  C   UNL     1      -4.002  45.585  68.506  0.00  0.00    +0.000 C 
ATOM      5  C   UNL     1      -4.417  44.877  69.751  0.00  0.00    +0.000 A 
ATOM      6  C   UNL     1      -5.714  44.453  69.966  0.00  0.00    +0.000 A 
ATOM      7  N   UNL     1      -6.098  43.779  71.061  0.00  0.00    +0.000 NA
ATOM      8  C   UNL     1      -5.148  43.511  71.961  0.00  0.00    +0.000 A 
ATOM      9  N   UNL     1      -3.858  43.865  71.851  0.00  0.00    +0.000 NA
ATOM     10  C   UNL     1      -3.511  44.554  70.742  0.00  0.00    +0.000 A 
ATOM     11  C   UNL     1      -2.077  44.997  70.660  0.00  0.00    +0.000 C 
ATOM     12  H   UNL     1      -1.268  45.129  68.803  0.00  0.00    +0.000 HD
ENDBRANCH   1   2
BRANCH   1  17
ATOM     13  C   UNL     1      -1.452  51.751  68.150  0.00  0.00    +0.000 A 
ATOM     14  C   UNL     1      -1.936  50.998  69.213  0.00  0.00    +0.000 A 
ATOM     15  C   UNL     1      -1.495  49.681  69.397  0.00  0.00    +0.000 A 
ATOM     16  C   UNL     1      -0.549  49.071  68.534  0.00  0.00    +0.000 A 
ATOM     17  C   UNL     1      -0.057  47.730  68.661  0.00  0.00    +0.000 A 
ATOM     18  C   UNL     1       0.854  47.248  67.701  0.00  0.00    +0.000 A 
ATOM     19  C   UNL     1       1.316  48.055  66.669  0.00  0.00    +0.000 A 
ATOM     20  C   UNL     1       0.854  49.358  66.544  0.00  0.00    +0.000 A 
ATOM     21  C   UNL     1      -0.069  49.872  67.457  0.00  0.00    +0.000 A 
ATOM     22  C   UNL     1      -0.526  51.190  67.280  0.00  0.00    +0.000 A 
ENDBRANCH   1  17
TORSDOF 2
ENDMDL
MODEL 8
REMARK VINA RESULT:      -8.5      5.171      8.296
REMARK  Name = ZINC69869800
REMARK  2 active torsions:
REMARK  status: ('A' for Active; 'I' for Inactive)
REMARK    1  A    between atoms: C_5  and  C_6
REMARK    2  A    between atoms: C_6  and  N_7
REMARK                            x       y       z     vdW  Elec       q    Type
REMARK                         _______ _______ _______ _____ _____    ______ ____
ROOT
ATOM      1  C   UNL     1      -2.960  47.368  67.340  0.00  0.00    +0.000 C 
ENDROOT
BRANCH   1   2
ATOM      2  N   UNL     1      -2.480  48.592  68.125  0.00  0.00    +0.000 N 
ATOM      3  C   UNL     1      -3.602  49.524  68.502  0.00  0.00    +0.000 C 
ATOM      4  C   UNL     1      -3.125  50.810  69.176  0.00  0.00    +0.000 C 
ATOM      5  C   UNL     1      -1.998  51.465  68.452  0.00  0.00    +0.000 A 
ATOM      6  C   UNL     1      -1.755  52.822  68.530  0.00  0.00    +0.000 A 
ATOM      7  N   UNL     1      -0.722  53.424  67.919  0.00  0.00    +0.000 NA
ATOM      8  C   UNL     1       0.098  52.635  67.219  0.00  0.00    +0.000 A 
ATOM      9  N   UNL     1      -0.037  51.307  67.083  0.00  0.00    +0.000 NA
ATOM     10  C   UNL     1      -1.095  50.739  67.701  0.00  0.00    +0.000 A 
ATOM     11  C   UNL     1      -1.269  49.261  67.491  0.00  0.00    +0.000 C 
ATOM     12  H   UNL     1      -2.117  48.217  69.010  0.00  0.00    +0.000 HD
ENDBRANCH   1   2
BRANCH   1  17
ATOM     13  C   UNL     1      -7.746  45.063  67.250  0.00  0.00    +0.000 A 
ATOM     14  C   UNL     1      -7.162  46.047  66.462  0.00  0.00    +0.000 A 
ATOM     15  C   UNL     1      -5.851  46.466  66.723  0.00  0.00    +0.000 A 
ATOM     16  C   UNL     1      -5.073  45.913  67.772  0.00  0.00    +0.000 A 
ATOM     17  C   UNL     1      -3.730  46.297  68.096  0.00  0.00    +0.000 A 
ATOM     18  C   UNL     1      -3.096  45.685  69.196  0.00  0.00    +0.000 A 
ATOM     19  C   UNL     1      -3.726  44.693  69.936  0.00  0.00    +0.000 A 
ATOM     20  C   UNL     1      -5.022  44.307  69.624  0.00  0.00    +0.000 A 
ATOM     21  C   UNL     1      -5.700  44.903  68.558  0.00  0.00    +0.000 A 
ATOM     22  C   UNL     1      -7.019  44.497  68.290  0.00  0.00    +0.000 A 
ENDBRANCH   1  17
TORSDOF 2
ENDMDL
MODEL 9
REMARK VINA RESULT:      -8.4      3.771      6.576
REMARK  Name = ZINC69869800
REMARK  2 active torsions:
REMARK  status: ('A' for Active; 'I' for Inactive)
REMARK    1  A    between atoms: C_5  and  C_6
REMARK    2  A    between atoms: C_6  and  N_7
REMARK                            x       y       z     vdW  Elec       q    Type
REMARK                         _______ _______ _______ _____ _____    ______ ____
ROOT
ATOM      1  C   UNL     1      -1.730  50.584  69.036  0.00  0.00    +0.000 C 
ENDROOT
BRANCH   1   2
ATOM      2  N   UNL     1      -3.188  50.348  68.634  0.00  0.00    +0.000 N 
ATOM      3  C   UNL     1      -3.576  48.892  68.663  0.00  0.00    +0.000 C 
ATOM      4  C   UNL     1      -4.989  48.628  68.145  0.00  0.00    +0.000 C 
ATOM      5  C   UNL     1      -5.275  49.315  66.853  0.00  0.00    +0.000 A 
ATOM      6  C   UNL     1      -6.212  48.845  65.953  0.00  0.00    +0.000 A 
ATOM      7  N   UNL     1      -6.512  49.472  64.805  0.00  0.00    +0.000 NA
ATOM      8  C   UNL     1      -5.860  50.611  64.559  0.00  0.00    +0.000 A 
ATOM      9  N   UNL     1      -4.940  51.163  65.364  0.00  0.00    +0.000 NA
ATOM     10  C   UNL     1      -4.654  50.499  66.504  0.00  0.00    +0.000 A 
ATOM     11  C   UNL     1      -3.578  51.096  67.367  0.00  0.00    +0.000 C 
ATOM     12  H   UNL     1      -3.745  50.801  69.369  0.00  0.00    +0.000 HD
ENDBRANCH   1   2
BRANCH   1  17
ATOM     13  C   UNL     1       1.881  46.997  70.563  0.00  0.00    +0.000 A 
ATOM     14  C   UNL     1       0.941  47.742  71.264  0.00  0.00    +0.000 A 
ATOM     15  C   UNL     1       0.100  48.629  70.581  0.00  0.00    +0.000 A 
ATOM     16  C   UNL     1       0.159  48.800  69.175  0.00  0.00    +0.000 A 
ATOM     17  C   UNL     1      -0.668  49.691  68.414  0.00  0.00    +0.000 A 
ATOM     18  C   UNL     1      -0.466  49.782  67.022  0.00  0.00    +0.000 A 
ATOM     19  C   UNL     1       0.478  48.997  66.373  0.00  0.00    +0.000 A 
ATOM     20  C   UNL     1       1.276  48.123  67.100  0.00  0.00    +0.000 A 
ATOM     21  C   UNL     1       1.130  48.017  68.485  0.00  0.00    +0.000 A 
ATOM     22  C   UNL     1       1.973  47.135  69.183  0.00  0.00    +0.000 A 
ENDBRANCH   1  17
TORSDOF 2
ENDMDL
