REMARK  Name = 
REMARK  4 active torsions:
REMARK  status: ('A' for Active; 'I' for Inactive)
REMARK    1  A    between atoms: O_1  and  C_2
REMARK    2  A    between atoms: C_2  and  C_4
REMARK    3  A    between atoms: N_6  and  C_7
REMARK    4  A    between atoms: C_7  and  C_8
REMARK                            x       y       z     vdW  Elec       q    Type
REMARK                         _______ _______ _______ _____ _____    ______ ____
ROOT
ATOM      1  C   UNL     1       3.030   0.099   1.231  0.00  0.00    +0.000 C 
ATOM      2  C   UNL     1       3.039  -1.282   1.940  0.00  0.00    +0.000 C 
ATOM      3  N   UNL     1       1.682  -1.619   2.549  0.00  0.00    +0.000 N 
ATOM      4  C   UNL     1       1.260  -0.569   3.548  0.00  0.00    +0.000 C 
ATOM      5  C   UNL     1       1.522   0.860   3.115  0.00  0.00    +0.000 A 
ATOM      6  N   UNL     1       0.939   1.816   3.866  0.00  0.00    +0.000 NA
ATOM      7  C   UNL     1       1.174   3.093   3.525  0.00  0.00    +0.000 A 
ATOM      8  N   UNL     1       1.961   3.490   2.512  0.00  0.00    +0.000 NA
ATOM      9  C   UNL     1       2.540   2.519   1.789  0.00  0.00    +0.000 A 
ATOM     10  C   UNL     1       2.371   1.176   2.057  0.00  0.00    +0.000 A 
ATOM     11  H   UNL     1       1.000  -1.581   1.771  0.00  0.00    +0.000 HD
ENDROOT
BRANCH   1  12
ATOM     12  C   UNL     1       2.339  -0.094  -0.106  0.00  0.00    +0.000 C 
ATOM     13  O   UNL     1       1.345  -0.836  -0.211  0.00  0.00    +0.000 OA
BRANCH  12  14
ATOM     14  O   UNL     1       2.817   0.634  -1.134  0.00  0.00    +0.000 OA
ATOM     15  H   UNL     1       3.570   1.223  -0.951  0.00  0.00    +0.000 HD
ENDBRANCH  12  14
ENDBRANCH   1  12
BRANCH   3  16
ATOM     16  C   UNL     1       1.610  -3.053   3.105  0.00  0.00    +0.000 C 
BRANCH  16  17
ATOM     17  C   UNL     1       0.203  -3.487   3.446  0.00  0.00    +0.000 A 
ATOM     18  C   UNL     1      -0.683  -3.736   2.382  0.00  0.00    +0.000 A 
ATOM     19  C   UNL     1      -2.050  -3.856   2.610  0.00  0.00    +0.000 A 
ATOM     20  C   UNL     1      -2.557  -3.586   3.874  0.00  0.00    +0.000 A 
ATOM     21  C   UNL     1      -1.684  -3.464   4.962  0.00  0.00    +0.000 A 
ATOM     22  C   UNL     1      -2.191  -3.333   6.251  0.00  0.00    +0.000 A 
ATOM     23  C   UNL     1      -1.537  -3.959   7.294  0.00  0.00    +0.000 A 
ATOM     24  C   UNL     1      -0.196  -4.257   7.130  0.00  0.00    +0.000 A 
ATOM     25  C   UNL     1       0.456  -3.920   5.932  0.00  0.00    +0.000 A 
ATOM     26  C   UNL     1      -0.295  -3.593   4.776  0.00  0.00    +0.000 A 
ENDBRANCH  16  17
ENDBRANCH   3  16
TORSDOF 4
