REMARK  Name = 
REMARK  3 active torsions:
REMARK  status: ('A' for Active; 'I' for Inactive)
REMARK    1  A    between atoms: N_1  and  C_2
REMARK    2  A    between atoms: N_4  and  C_5
REMARK    3  A    between atoms: C_5  and  C_6
REMARK                            x       y       z     vdW  Elec       q    Type
REMARK                         _______ _______ _______ _____ _____    ______ ____
ROOT
ATOM      1  C   UNL     1       2.318  -0.092   0.095  0.00  0.00    +0.000 C 
ATOM      2  C   UNL     1       2.898  -1.545   0.052  0.00  0.00    +0.000 C 
ATOM      3  N   UNL     1       2.536  -2.218   1.362  0.00  0.00    +0.000 N 
ATOM      4  C   UNL     1       3.281  -1.533   2.502  0.00  0.00    +0.000 C 
ATOM      5  C   UNL     1       3.282  -0.015   2.439  0.00  0.00    +0.000 A 
ATOM      6  N   UNL     1       3.729   0.645   3.532  0.00  0.00    +0.000 NA
ATOM      7  C   UNL     1       3.731   1.987   3.470  0.00  0.00    +0.000 A 
ATOM      8  N   UNL     1       3.346   2.711   2.410  0.00  0.00    +0.000 NA
ATOM      9  C   UNL     1       2.914   2.027   1.342  0.00  0.00    +0.000 A 
ATOM     10  C   UNL     1       2.860   0.646   1.289  0.00  0.00    +0.000 A 
ATOM     11  H   UNL     1       1.543  -1.961   1.497  0.00  0.00    +0.000 HD
ENDROOT
BRANCH   1  12
ATOM     12  N   UNL     1       0.851  -0.184   0.224  0.00  0.00    +0.000 NA
ATOM     13  H   UNL     1       0.445  -0.452  -0.679  0.00  0.00    +0.000 HD
ATOM     14  H   UNL     1       0.466   0.759   0.373  0.00  0.00    +0.000 HD
ENDBRANCH   1  12
BRANCH   3  15
ATOM     15  C   UNL     1       2.640  -3.761   1.352  0.00  0.00    +0.000 C 
BRANCH  15  16
ATOM     16  C   UNL     1       2.105  -4.365   2.631  0.00  0.00    +0.000 A 
ATOM     17  C   UNL     1       0.865  -3.928   3.109  0.00  0.00    +0.000 A 
ATOM     18  C   UNL     1       0.496  -4.177   4.426  0.00  0.00    +0.000 A 
ATOM     19  C   UNL     1       1.391  -4.790   5.289  0.00  0.00    +0.000 A 
ATOM     20  C   UNL     1       2.544  -5.389   4.788  0.00  0.00    +0.000 A 
ATOM     21  C   UNL     1       3.334  -6.161   5.644  0.00  0.00    +0.000 A 
ATOM     22  C   UNL     1       4.068  -7.208   5.113  0.00  0.00    +0.000 A 
ATOM     23  C   UNL     1       4.235  -7.294   3.737  0.00  0.00    +0.000 A 
ATOM     24  C   UNL     1       3.738  -6.278   2.904  0.00  0.00    +0.000 A 
ATOM     25  C   UNL     1       2.832  -5.311   3.409  0.00  0.00    +0.000 A 
ENDBRANCH  15  16
ENDBRANCH   3  15
TORSDOF 3
