REMARK  Name = 
REMARK  3 active torsions:
REMARK  status: ('A' for Active; 'I' for Inactive)
REMARK    1  A    between atoms: O_1  and  C_2
REMARK    2  A    between atoms: N_4  and  C_5
REMARK    3  A    between atoms: C_5  and  C_6
REMARK                            x       y       z     vdW  Elec       q    Type
REMARK                         _______ _______ _______ _____ _____    ______ ____
ROOT
ATOM      1  C   UNL     1       2.452  -0.189   0.038  0.00  0.00    +0.000 C 
ATOM      2  C   UNL     1       3.022  -1.629  -0.011  0.00  0.00    +0.000 C 
ATOM      3  N   UNL     1       2.701  -2.294   1.316  0.00  0.00    +0.000 N 
ATOM      4  C   UNL     1       3.470  -1.606   2.432  0.00  0.00    +0.000 C 
ATOM      5  C   UNL     1       3.435  -0.097   2.369  0.00  0.00    +0.000 A 
ATOM      6  N   UNL     1       3.899   0.586   3.443  0.00  0.00    +0.000 NA
ATOM      7  C   UNL     1       3.848   1.928   3.397  0.00  0.00    +0.000 A 
ATOM      8  N   UNL     1       3.400   2.647   2.362  0.00  0.00    +0.000 NA
ATOM      9  C   UNL     1       2.963   1.949   1.296  0.00  0.00    +0.000 A 
ATOM     10  C   UNL     1       2.961   0.567   1.228  0.00  0.00    +0.000 A 
ATOM     11  H   UNL     1       1.707  -2.054   1.485  0.00  0.00    +0.000 HD
ENDROOT
BRANCH   1  12
ATOM     12  O   UNL     1       1.038  -0.315   0.202  0.00  0.00    +0.000 OA
ATOM     13  H   UNL     1       0.610   0.018  -0.612  0.00  0.00    +0.000 HD
ENDBRANCH   1  12
BRANCH   3  14
ATOM     14  C   UNL     1       2.807  -3.817   1.327  0.00  0.00    +0.000 C 
BRANCH  14  15
ATOM     15  C   UNL     1       2.303  -4.424   2.620  0.00  0.00    +0.000 A 
ATOM     16  C   UNL     1       1.064  -3.991   3.121  0.00  0.00    +0.000 A 
ATOM     17  C   UNL     1       0.735  -4.194   4.453  0.00  0.00    +0.000 A 
ATOM     18  C   UNL     1       1.657  -4.781   5.307  0.00  0.00    +0.000 A 
ATOM     19  C   UNL     1       2.801  -5.393   4.785  0.00  0.00    +0.000 A 
ATOM     20  C   UNL     1       3.615  -6.144   5.634  0.00  0.00    +0.000 A 
ATOM     21  C   UNL     1       4.426  -7.137   5.102  0.00  0.00    +0.000 A 
ATOM     22  C   UNL     1       4.558  -7.249   3.723  0.00  0.00    +0.000 A 
ATOM     23  C   UNL     1       3.977  -6.289   2.881  0.00  0.00    +0.000 A 
ATOM     24  C   UNL     1       3.059  -5.342   3.397  0.00  0.00    +0.000 A 
ENDBRANCH  14  15
ENDBRANCH   3  14
TORSDOF 3
