MODEL 1
REMARK VINA RESULT:      -9.4      0.000      0.000
REMARK  Name = 
REMARK  3 active torsions:
REMARK  status: ('A' for Active; 'I' for Inactive)
REMARK    1  A    between atoms: O_1  and  C_2
REMARK    2  A    between atoms: N_4  and  C_5
REMARK    3  A    between atoms: C_5  and  C_6
REMARK                            x       y       z     vdW  Elec       q    Type
REMARK                         _______ _______ _______ _____ _____    ______ ____
ROOT
ATOM      1  C   UNL     1      -3.180  45.887  68.716  0.00  0.00    +0.000 C 
ATOM      2  C   UNL     1      -2.413  47.140  68.222  0.00  0.00    +0.000 C 
ATOM      3  N   UNL     1      -3.026  48.350  68.904  0.00  0.00    +0.000 N 
ATOM      4  C   UNL     1      -4.452  48.546  68.415  0.00  0.00    +0.000 C 
ATOM      5  C   UNL     1      -5.267  47.275  68.361  0.00  0.00    +0.000 A 
ATOM      6  N   UNL     1      -6.601  47.394  68.156  0.00  0.00    +0.000 NA
ATOM      7  C   UNL     1      -7.330  46.266  68.129  0.00  0.00    +0.000 A 
ATOM      8  N   UNL     1      -6.840  45.028  68.262  0.00  0.00    +0.000 NA
ATOM      9  C   UNL     1      -5.509  44.931  68.443  0.00  0.00    +0.000 A 
ATOM     10  C   UNL     1      -4.656  46.019  68.494  0.00  0.00    +0.000 A 
ATOM     11  H   UNL     1      -3.117  48.063  69.895  0.00  0.00    +0.000 HD
ENDROOT
BRANCH   1  12
ATOM     12  O   UNL     1      -2.979  45.817  70.129  0.00  0.00    +0.000 OA
ATOM     13  H   UNL     1      -2.604  44.937  70.336  0.00  0.00    +0.000 HD
ENDBRANCH   1  12
BRANCH   3  14
ATOM     14  C   UNL     1      -2.174  49.617  68.877  0.00  0.00    +0.000 C 
BRANCH  14  15
ATOM     15  C   UNL     1      -0.749  49.348  68.441  0.00  0.00    +0.000 A 
ATOM     16  C   UNL     1      -0.337  49.816  67.182  0.00  0.00    +0.000 A 
ATOM     17  C   UNL     1       0.785  49.281  66.567  0.00  0.00    +0.000 A 
ATOM     18  C   UNL     1       1.473  48.242  67.175  0.00  0.00    +0.000 A 
ATOM     19  C   UNL     1       1.199  47.908  68.505  0.00  0.00    +0.000 A 
ATOM     20  C   UNL     1       2.029  46.997  69.160  0.00  0.00    +0.000 A 
ATOM     21  C   UNL     1       2.110  47.019  70.545  0.00  0.00    +0.000 A 
ATOM     22  C   UNL     1       1.233  47.815  71.271  0.00  0.00    +0.000 A 
ATOM     23  C   UNL     1       0.193  48.493  70.616  0.00  0.00    +0.000 A 
ATOM     24  C   UNL     1       0.166  48.572  69.202  0.00  0.00    +0.000 A 
ENDBRANCH  14  15
ENDBRANCH   3  14
TORSDOF 3
ENDMDL
MODEL 2
REMARK VINA RESULT:      -8.9      1.806      3.235
REMARK  Name = 
REMARK  3 active torsions:
REMARK  status: ('A' for Active; 'I' for Inactive)
REMARK    1  A    between atoms: O_1  and  C_2
REMARK    2  A    between atoms: N_4  and  C_5
REMARK    3  A    between atoms: C_5  and  C_6
REMARK                            x       y       z     vdW  Elec       q    Type
REMARK                         _______ _______ _______ _____ _____    ______ ____
ROOT
ATOM      1  C   UNL     1      -3.255  44.233  71.599  0.00  0.00    +0.000 C 
ATOM      2  C   UNL     1      -1.797  44.532  71.169  0.00  0.00    +0.000 C 
ATOM      3  N   UNL     1      -1.771  45.933  70.583  0.00  0.00    +0.000 N 
ATOM      4  C   UNL     1      -2.574  45.963  69.293  0.00  0.00    +0.000 C 
ATOM      5  C   UNL     1      -3.906  45.255  69.377  0.00  0.00    +0.000 A 
ATOM      6  N   UNL     1      -4.774  45.430  68.352  0.00  0.00    +0.000 NA
ATOM      7  C   UNL     1      -5.968  44.818  68.435  0.00  0.00    +0.000 A 
ATOM      8  N   UNL     1      -6.359  44.026  69.440  0.00  0.00    +0.000 NA
ATOM      9  C   UNL     1      -5.473  43.849  70.439  0.00  0.00    +0.000 A 
ATOM     10  C   UNL     1      -4.217  44.429  70.467  0.00  0.00    +0.000 A 
ATOM     11  H   UNL     1      -2.319  46.499  71.257  0.00  0.00    +0.000 HD
ENDROOT
BRANCH   1  12
ATOM     12  O   UNL     1      -3.591  45.196  72.600  0.00  0.00    +0.000 OA
ATOM     13  H   UNL     1      -3.997  45.965  72.152  0.00  0.00    +0.000 HD
ENDBRANCH   1  12
BRANCH   3  14
ATOM     14  C   UNL     1      -0.388  46.572  70.476  0.00  0.00    +0.000 C 
BRANCH  14  15
ATOM     15  C   UNL     1      -0.439  47.972  69.901  0.00  0.00    +0.000 A 
ATOM     16  C   UNL     1      -1.121  48.965  70.624  0.00  0.00    +0.000 A 
ATOM     17  C   UNL     1      -1.541  50.128  69.996  0.00  0.00    +0.000 A 
ATOM     18  C   UNL     1      -1.332  50.287  68.634  0.00  0.00    +0.000 A 
ATOM     19  C   UNL     1      -0.486  49.409  67.950  0.00  0.00    +0.000 A 
ATOM     20  C   UNL     1      -0.134  49.696  66.630  0.00  0.00    +0.000 A 
ATOM     21  C   UNL     1       1.038  49.170  66.105  0.00  0.00    +0.000 A 
ATOM     22  C   UNL     1       1.749  48.222  66.830  0.00  0.00    +0.000 A 
ATOM     23  C   UNL     1       1.221  47.708  68.024  0.00  0.00    +0.000 A 
ATOM     24  C   UNL     1       0.090  48.311  68.628  0.00  0.00    +0.000 A 
ENDBRANCH  14  15
ENDBRANCH   3  14
TORSDOF 3
ENDMDL
MODEL 3
REMARK VINA RESULT:      -8.8      2.318      2.914
REMARK  Name = 
REMARK  3 active torsions:
REMARK  status: ('A' for Active; 'I' for Inactive)
REMARK    1  A    between atoms: O_1  and  C_2
REMARK    2  A    between atoms: N_4  and  C_5
REMARK    3  A    between atoms: C_5  and  C_6
REMARK                            x       y       z     vdW  Elec       q    Type
REMARK                         _______ _______ _______ _____ _____    ______ ____
ROOT
ATOM      1  C   UNL     1      -4.316  50.915  66.127  0.00  0.00    +0.000 C 
ATOM      2  C   UNL     1      -3.503  51.282  67.395  0.00  0.00    +0.000 C 
ATOM      3  N   UNL     1      -3.066  49.983  68.050  0.00  0.00    +0.000 N 
ATOM      4  C   UNL     1      -4.283  49.236  68.568  0.00  0.00    +0.000 C 
ATOM      5  C   UNL     1      -5.438  49.185  67.595  0.00  0.00    +0.000 A 
ATOM      6  N   UNL     1      -6.466  48.352  67.887  0.00  0.00    +0.000 NA
ATOM      7  C   UNL     1      -7.484  48.289  67.011  0.00  0.00    +0.000 A 
ATOM      8  N   UNL     1      -7.577  49.005  65.886  0.00  0.00    +0.000 NA
ATOM      9  C   UNL     1      -6.555  49.843  65.625  0.00  0.00    +0.000 A 
ATOM     10  C   UNL     1      -5.451  49.990  66.447  0.00  0.00    +0.000 A 
ATOM     11  H   UNL     1      -2.712  49.410  67.262  0.00  0.00    +0.000 HD
ENDROOT
BRANCH   1  12
ATOM     12  O   UNL     1      -3.429  50.198  65.267  0.00  0.00    +0.000 OA
ATOM     13  H   UNL     1      -2.748  49.771  65.824  0.00  0.00    +0.000 HD
ENDBRANCH   1  12
BRANCH   3  14
ATOM     14  C   UNL     1      -1.930  50.112  69.062  0.00  0.00    +0.000 C 
BRANCH  14  15
ATOM     15  C   UNL     1      -0.599  49.656  68.502  0.00  0.00    +0.000 A 
ATOM     16  C   UNL     1      -0.209  50.133  67.239  0.00  0.00    +0.000 A 
ATOM     17  C   UNL     1       0.769  49.473  66.510  0.00  0.00    +0.000 A 
ATOM     18  C   UNL     1       1.326  48.304  67.007  0.00  0.00    +0.000 A 
ATOM     19  C   UNL     1       1.097  47.932  68.336  0.00  0.00    +0.000 A 
ATOM     20  C   UNL     1       1.817  46.865  68.874  0.00  0.00    +0.000 A 
ATOM     21  C   UNL     1       1.998  46.787  70.248  0.00  0.00    +0.000 A 
ATOM     22  C   UNL     1       1.310  47.661  71.082  0.00  0.00    +0.000 A 
ATOM     23  C   UNL     1       0.347  48.530  70.547  0.00  0.00    +0.000 A 
ATOM     24  C   UNL     1       0.233  48.702  69.146  0.00  0.00    +0.000 A 
ENDBRANCH  14  15
ENDBRANCH   3  14
TORSDOF 3
ENDMDL
MODEL 4
REMARK VINA RESULT:      -8.7      3.541      6.155
REMARK  Name = 
REMARK  3 active torsions:
REMARK  status: ('A' for Active; 'I' for Inactive)
REMARK    1  A    between atoms: O_1  and  C_2
REMARK    2  A    between atoms: N_4  and  C_5
REMARK    3  A    between atoms: C_5  and  C_6
REMARK                            x       y       z     vdW  Elec       q    Type
REMARK                         _______ _______ _______ _____ _____    ______ ____
ROOT
ATOM      1  C   UNL     1      -1.123  49.079  69.442  0.00  0.00    +0.000 C 
ATOM      2  C   UNL     1      -1.043  49.528  67.962  0.00  0.00    +0.000 C 
ATOM      3  N   UNL     1      -0.718  48.301  67.128  0.00  0.00    +0.000 N 
ATOM      4  C   UNL     1       0.680  47.810  67.464  0.00  0.00    +0.000 C 
ATOM      5  C   UNL     1       0.979  47.760  68.944  0.00  0.00    +0.000 A 
ATOM      6  N   UNL     1       2.111  47.124  69.333  0.00  0.00    +0.000 NA
ATOM      7  C   UNL     1       2.367  47.060  70.651  0.00  0.00    +0.000 A 
ATOM      8  N   UNL     1       1.607  47.599  71.611  0.00  0.00    +0.000 NA
ATOM      9  C   UNL     1       0.498  48.244  71.201  0.00  0.00    +0.000 A 
ATOM     10  C   UNL     1       0.126  48.372  69.874  0.00  0.00    +0.000 A 
ATOM     11  H   UNL     1      -1.357  47.571  67.493  0.00  0.00    +0.000 HD
ENDROOT
BRANCH   1  12
ATOM     12  O   UNL     1      -2.186  48.127  69.523  0.00  0.00    +0.000 OA
ATOM     13  H   UNL     1      -2.319  47.905  70.467  0.00  0.00    +0.000 HD
ENDBRANCH   1  12
BRANCH   3  14
ATOM     14  C   UNL     1      -0.994  48.435  65.632  0.00  0.00    +0.000 C 
BRANCH  14  15
ATOM     15  C   UNL     1      -0.269  49.613  65.012  0.00  0.00    +0.000 A 
ATOM     16  C   UNL     1      -0.778  50.902  65.240  0.00  0.00    +0.000 A 
ATOM     17  C   UNL     1      -0.421  51.954  64.409  0.00  0.00    +0.000 A 
ATOM     18  C   UNL     1       0.400  51.720  63.317  0.00  0.00    +0.000 A 
ATOM     19  C   UNL     1       1.069  50.497  63.195  0.00  0.00    +0.000 A 
ATOM     20  C   UNL     1       2.036  50.350  62.201  0.00  0.00    +0.000 A 
ATOM     21  C   UNL     1       3.034  49.397  62.354  0.00  0.00    +0.000 A 
ATOM     22  C   UNL     1       2.954  48.481  63.396  0.00  0.00    +0.000 A 
ATOM     23  C   UNL     1       1.812  48.441  64.211  0.00  0.00    +0.000 A 
ATOM     24  C   UNL     1       0.844  49.472  64.141  0.00  0.00    +0.000 A 
ENDBRANCH  14  15
ENDBRANCH   3  14
TORSDOF 3
ENDMDL
MODEL 5
REMARK VINA RESULT:      -8.5      2.724      6.532
REMARK  Name = 
REMARK  3 active torsions:
REMARK  status: ('A' for Active; 'I' for Inactive)
REMARK    1  A    between atoms: O_1  and  C_2
REMARK    2  A    between atoms: N_4  and  C_5
REMARK    3  A    between atoms: C_5  and  C_6
REMARK                            x       y       z     vdW  Elec       q    Type
REMARK                         _______ _______ _______ _____ _____    ______ ____
ROOT
ATOM      1  C   UNL     1      -0.326  49.405  66.952  0.00  0.00    +0.000 C 
ATOM      2  C   UNL     1      -0.473  48.206  67.923  0.00  0.00    +0.000 C 
ATOM      3  N   UNL     1      -1.903  48.204  68.435  0.00  0.00    +0.000 N 
ATOM      4  C   UNL     1      -2.139  49.435  69.294  0.00  0.00    +0.000 C 
ATOM      5  C   UNL     1      -1.601  50.717  68.702  0.00  0.00    +0.000 A 
ATOM      6  N   UNL     1      -1.966  51.881  69.290  0.00  0.00    +0.000 NA
ATOM      7  C   UNL     1      -1.506  53.022  68.750  0.00  0.00    +0.000 A 
ATOM      8  N   UNL     1      -0.690  53.101  67.693  0.00  0.00    +0.000 NA
ATOM      9  C   UNL     1      -0.321  51.931  67.137  0.00  0.00    +0.000 A 
ATOM     10  C   UNL     1      -0.734  50.694  67.599  0.00  0.00    +0.000 A 
ATOM     11  H   UNL     1      -2.476  48.354  67.585  0.00  0.00    +0.000 HD
ENDROOT
BRANCH   1  12
ATOM     12  O   UNL     1      -1.239  49.174  65.877  0.00  0.00    +0.000 OA
ATOM     13  H   UNL     1      -1.385  50.025  65.418  0.00  0.00    +0.000 HD
ENDBRANCH   1  12
BRANCH   3  14
ATOM     14  C   UNL     1      -2.368  46.896  69.071  0.00  0.00    +0.000 C 
BRANCH  14  15
ATOM     15  C   UNL     1      -3.601  46.331  68.397  0.00  0.00    +0.000 A 
ATOM     16  C   UNL     1      -3.922  46.784  67.106  0.00  0.00    +0.000 A 
ATOM     17  C   UNL     1      -5.205  46.622  66.604  0.00  0.00    +0.000 A 
ATOM     18  C   UNL     1      -6.189  46.057  67.402  0.00  0.00    +0.000 A 
ATOM     19  C   UNL     1      -5.840  45.425  68.599  0.00  0.00    +0.000 A 
ATOM     20  C   UNL     1      -6.810  44.696  69.288  0.00  0.00    +0.000 A 
ATOM     21  C   UNL     1      -6.418  43.684  70.154  0.00  0.00    +0.000 A 
ATOM     22  C   UNL     1      -5.072  43.530  70.464  0.00  0.00    +0.000 A 
ATOM     23  C   UNL     1      -4.133  44.467  70.006  0.00  0.00    +0.000 A 
ATOM     24  C   UNL     1      -4.497  45.433  69.037  0.00  0.00    +0.000 A 
ENDBRANCH  14  15
ENDBRANCH   3  14
TORSDOF 3
ENDMDL
MODEL 6
REMARK VINA RESULT:      -8.1      2.252      6.216
REMARK  Name = 
REMARK  3 active torsions:
REMARK  status: ('A' for Active; 'I' for Inactive)
REMARK    1  A    between atoms: O_1  and  C_2
REMARK    2  A    between atoms: N_4  and  C_5
REMARK    3  A    between atoms: C_5  and  C_6
REMARK                            x       y       z     vdW  Elec       q    Type
REMARK                         _______ _______ _______ _____ _____    ______ ____
ROOT
ATOM      1  C   UNL     1      -0.955  49.256  70.107  0.00  0.00    +0.000 C 
ATOM      2  C   UNL     1      -1.770  49.925  68.971  0.00  0.00    +0.000 C 
ATOM      3  N   UNL     1      -2.338  48.817  68.102  0.00  0.00    +0.000 N 
ATOM      4  C   UNL     1      -1.205  48.089  67.395  0.00  0.00    +0.000 C 
ATOM      5  C   UNL     1      -0.031  47.759  68.286  0.00  0.00    +0.000 A 
ATOM      6  N   UNL     1       0.912  46.919  67.795  0.00  0.00    +0.000 NA
ATOM      7  C   UNL     1       1.946  46.607  68.595  0.00  0.00    +0.000 A 
ATOM      8  N   UNL     1       2.134  47.082  69.831  0.00  0.00    +0.000 NA
ATOM      9  C   UNL     1       1.197  47.932  70.292  0.00  0.00    +0.000 A 
ATOM     10  C   UNL     1       0.086  48.323  69.565  0.00  0.00    +0.000 A 
ATOM     11  H   UNL     1      -2.717  48.132  68.781  0.00  0.00    +0.000 HD
ENDROOT
BRANCH   1  12
ATOM     12  O   UNL     1      -1.875  48.459  70.855  0.00  0.00    +0.000 OA
ATOM     13  H   UNL     1      -1.671  47.519  70.679  0.00  0.00    +0.000 HD
ENDBRANCH   1  12
BRANCH   3  14
ATOM     14  C   UNL     1      -3.487  49.228  67.185  0.00  0.00    +0.000 C 
BRANCH  14  15
ATOM     15  C   UNL     1      -4.227  48.037  66.612  0.00  0.00    +0.000 A 
ATOM     16  C   UNL     1      -4.578  48.063  65.252  0.00  0.00    +0.000 A 
ATOM     17  C   UNL     1      -5.570  47.224  64.766  0.00  0.00    +0.000 A 
ATOM     18  C   UNL     1      -6.255  46.393  65.640  0.00  0.00    +0.000 A 
ATOM     19  C   UNL     1      -5.786  46.211  66.945  0.00  0.00    +0.000 A 
ATOM     20  C   UNL     1      -6.370  45.229  67.745  0.00  0.00    +0.000 A 
ATOM     21  C   UNL     1      -5.648  44.687  68.800  0.00  0.00    +0.000 A 
ATOM     22  C   UNL     1      -4.431  45.254  69.160  0.00  0.00    +0.000 A 
ATOM     23  C   UNL     1      -3.997  46.438  68.546  0.00  0.00    +0.000 A 
ATOM     24  C   UNL     1      -4.661  46.937  67.398  0.00  0.00    +0.000 A 
ENDBRANCH  14  15
ENDBRANCH   3  14
TORSDOF 3
ENDMDL
MODEL 7
REMARK VINA RESULT:      -8.0      4.165      6.230
REMARK  Name = 
REMARK  3 active torsions:
REMARK  status: ('A' for Active; 'I' for Inactive)
REMARK    1  A    between atoms: O_1  and  C_2
REMARK    2  A    between atoms: N_4  and  C_5
REMARK    3  A    between atoms: C_5  and  C_6
REMARK                            x       y       z     vdW  Elec       q    Type
REMARK                         _______ _______ _______ _____ _____    ______ ____
ROOT
ATOM      1  C   UNL     1      -2.584  49.922  63.844  0.00  0.00    +0.000 C 
ATOM      2  C   UNL     1      -1.156  50.463  64.108  0.00  0.00    +0.000 C 
ATOM      3  N   UNL     1      -0.516  49.574  65.160  0.00  0.00    +0.000 N 
ATOM      4  C   UNL     1      -1.248  49.739  66.482  0.00  0.00    +0.000 C 
ATOM      5  C   UNL     1      -2.754  49.724  66.362  0.00  0.00    +0.000 A 
ATOM      6  N   UNL     1      -3.473  49.637  67.507  0.00  0.00    +0.000 NA
ATOM      7  C   UNL     1      -4.812  49.601  67.400  0.00  0.00    +0.000 A 
ATOM      8  N   UNL     1      -5.496  49.673  66.253  0.00  0.00    +0.000 NA
ATOM      9  C   UNL     1      -4.763  49.780  65.128  0.00  0.00    +0.000 A 
ATOM     10  C   UNL     1      -3.380  49.821  65.111  0.00  0.00    +0.000 A 
ATOM     11  H   UNL     1      -0.738  48.612  64.846  0.00  0.00    +0.000 HD
ENDROOT
BRANCH   1  12
ATOM     12  O   UNL     1      -2.431  48.592  63.345  0.00  0.00    +0.000 OA
ATOM     13  H   UNL     1      -1.668  48.185  63.803  0.00  0.00    +0.000 HD
ENDBRANCH   1  12
BRANCH   3  14
ATOM     14  C   UNL     1       1.003  49.676  65.267  0.00  0.00    +0.000 C 
BRANCH  14  15
ATOM     15  C   UNL     1       1.715  48.829  64.233  0.00  0.00    +0.000 A 
ATOM     16  C   UNL     1       1.792  47.442  64.446  0.00  0.00    +0.000 A 
ATOM     17  C   UNL     1       2.738  46.680  63.777  0.00  0.00    +0.000 A 
ATOM     18  C   UNL     1       3.648  47.299  62.933  0.00  0.00    +0.000 A 
ATOM     19  C   UNL     1       3.457  48.633  62.560  0.00  0.00    +0.000 A 
ATOM     20  C   UNL     1       4.267  49.180  61.563  0.00  0.00    +0.000 A 
ATOM     21  C   UNL     1       3.812  50.270  60.834  0.00  0.00    +0.000 A 
ATOM     22  C   UNL     1       2.645  50.917  61.223  0.00  0.00    +0.000 A 
ATOM     23  C   UNL     1       2.002  50.549  62.415  0.00  0.00    +0.000 A 
ATOM     24  C   UNL     1       2.386  49.374  63.106  0.00  0.00    +0.000 A 
ENDBRANCH  14  15
ENDBRANCH   3  14
TORSDOF 3
ENDMDL
MODEL 8
REMARK VINA RESULT:      -8.0      3.915      6.326
REMARK  Name = 
REMARK  3 active torsions:
REMARK  status: ('A' for Active; 'I' for Inactive)
REMARK    1  A    between atoms: O_1  and  C_2
REMARK    2  A    between atoms: N_4  and  C_5
REMARK    3  A    between atoms: C_5  and  C_6
REMARK                            x       y       z     vdW  Elec       q    Type
REMARK                         _______ _______ _______ _____ _____    ______ ____
ROOT
ATOM      1  C   UNL     1       0.878  47.756  67.420  0.00  0.00    +0.000 C 
ATOM      2  C   UNL     1      -0.101  47.881  66.226  0.00  0.00    +0.000 C 
ATOM      3  N   UNL     1      -0.486  49.345  66.100  0.00  0.00    +0.000 N 
ATOM      4  C   UNL     1      -1.295  49.767  67.316  0.00  0.00    +0.000 C 
ATOM      5  C   UNL     1      -0.726  49.294  68.633  0.00  0.00    +0.000 A 
ATOM      6  N   UNL     1      -1.255  49.813  69.767  0.00  0.00    +0.000 NA
ATOM      7  C   UNL     1      -0.735  49.410  70.938  0.00  0.00    +0.000 A 
ATOM      8  N   UNL     1       0.248  48.514  71.077  0.00  0.00    +0.000 NA
ATOM      9  C   UNL     1       0.746  47.994  69.938  0.00  0.00    +0.000 A 
ATOM     10  C   UNL     1       0.296  48.334  68.675  0.00  0.00    +0.000 A 
ATOM     11  H   UNL     1       0.414  49.851  66.186  0.00  0.00    +0.000 HD
ENDROOT
BRANCH   1  12
ATOM     12  O   UNL     1       2.023  48.546  67.094  0.00  0.00    +0.000 OA
ATOM     13  H   UNL     1       1.954  49.392  67.580  0.00  0.00    +0.000 HD
ENDBRANCH   1  12
BRANCH   3  14
ATOM     14  C   UNL     1      -1.106  49.746  64.764  0.00  0.00    +0.000 C 
BRANCH  14  15
ATOM     15  C   UNL     1      -0.243  50.726  63.996  0.00  0.00    +0.000 A 
ATOM     16  C   UNL     1      -0.660  52.065  63.921  0.00  0.00    +0.000 A 
ATOM     17  C   UNL     1      -0.157  52.904  62.937  0.00  0.00    +0.000 A 
ATOM     18  C   UNL     1       0.724  52.402  61.991  0.00  0.00    +0.000 A 
ATOM     19  C   UNL     1       1.299  51.140  62.172  0.00  0.00    +0.000 A 
ATOM     20  C   UNL     1       2.325  50.733  61.318  0.00  0.00    +0.000 A 
ATOM     21  C   UNL     1       3.227  49.768  61.743  0.00  0.00    +0.000 A 
ATOM     22  C   UNL     1       2.993  49.088  62.933  0.00  0.00    +0.000 A 
ATOM     23  C   UNL     1       1.793  49.286  63.631  0.00  0.00    +0.000 A 
ATOM     24  C   UNL     1       0.919  50.342  63.274  0.00  0.00    +0.000 A 
ENDBRANCH  14  15
ENDBRANCH   3  14
TORSDOF 3
ENDMDL
MODEL 9
REMARK VINA RESULT:      -8.0      2.810      6.622
REMARK  Name = 
REMARK  3 active torsions:
REMARK  status: ('A' for Active; 'I' for Inactive)
REMARK    1  A    between atoms: O_1  and  C_2
REMARK    2  A    between atoms: N_4  and  C_5
REMARK    3  A    between atoms: C_5  and  C_6
REMARK                            x       y       z     vdW  Elec       q    Type
REMARK                         _______ _______ _______ _____ _____    ______ ____
ROOT
ATOM      1  C   UNL     1      -0.181  48.415  67.626  0.00  0.00    +0.000 C 
ATOM      2  C   UNL     1      -1.684  48.740  67.816  0.00  0.00    +0.000 C 
ATOM      3  N   UNL     1      -1.784  49.862  68.834  0.00  0.00    +0.000 N 
ATOM      4  C   UNL     1      -1.316  49.365  70.192  0.00  0.00    +0.000 C 
ATOM      5  C   UNL     1      -0.038  48.559  70.149  0.00  0.00    +0.000 A 
ATOM      6  N   UNL     1       0.563  48.276  71.329  0.00  0.00    +0.000 NA
ATOM      7  C   UNL     1       1.711  47.578  71.291  0.00  0.00    +0.000 A 
ATOM      8  N   UNL     1       2.296  47.117  70.180  0.00  0.00    +0.000 NA
ATOM      9  C   UNL     1       1.670  47.392  69.019  0.00  0.00    +0.000 A 
ATOM     10  C   UNL     1       0.488  48.104  68.931  0.00  0.00    +0.000 A 
ATOM     11  H   UNL     1      -1.063  50.542  68.532  0.00  0.00    +0.000 HD
ENDROOT
BRANCH   1  12
ATOM     12  O   UNL     1       0.433  49.602  67.119  0.00  0.00    +0.000 OA
ATOM     13  H   UNL     1      -0.130  49.946  66.397  0.00  0.00    +0.000 HD
ENDBRANCH   1  12
BRANCH   3  14
ATOM     14  C   UNL     1      -3.120  50.601  68.863  0.00  0.00    +0.000 C 
BRANCH  14  15
ATOM     15  C   UNL     1      -3.926  50.391  67.598  0.00  0.00    +0.000 A 
ATOM     16  C   UNL     1      -3.517  51.054  66.429  0.00  0.00    +0.000 A 
ATOM     17  C   UNL     1      -4.400  51.226  65.373  0.00  0.00    +0.000 A 
ATOM     18  C   UNL     1      -5.710  50.787  65.494  0.00  0.00    +0.000 A 
ATOM     19  C   UNL     1      -6.072  49.955  66.559  0.00  0.00    +0.000 A 
ATOM     20  C   UNL     1      -7.337  49.367  66.559  0.00  0.00    +0.000 A 
ATOM     21  C   UNL     1      -7.548  48.198  67.278  0.00  0.00    +0.000 A 
ATOM     22  C   UNL     1      -6.557  47.730  68.132  0.00  0.00    +0.000 A 
ATOM     23  C   UNL     1      -5.405  48.499  68.361  0.00  0.00    +0.000 A 
ATOM     24  C   UNL     1      -5.125  49.630  67.555  0.00  0.00    +0.000 A 
ENDBRANCH  14  15
ENDBRANCH   3  14
TORSDOF 3
ENDMDL
