MODEL 1
REMARK VINA RESULT:      -9.5      0.000      0.000
REMARK  Name = 
REMARK  4 active torsions:
REMARK  status: ('A' for Active; 'I' for Inactive)
REMARK    1  A    between atoms: O_1  and  C_2
REMARK    2  A    between atoms: C_2  and  C_4
REMARK    3  A    between atoms: N_6  and  C_7
REMARK    4  A    between atoms: C_7  and  C_8
REMARK                            x       y       z     vdW  Elec       q    Type
REMARK                         _______ _______ _______ _____ _____    ______ ____
ROOT
ATOM      1  C   UNL     1      -3.237  45.782  68.567  0.00  0.00    +0.000 C 
ATOM      2  C   UNL     1      -2.395  47.061  68.312  0.00  0.00    +0.000 C 
ATOM      3  N   UNL     1      -2.978  48.279  69.020  0.00  0.00    +0.000 N 
ATOM      4  C   UNL     1      -4.396  48.540  68.572  0.00  0.00    +0.000 C 
ATOM      5  C   UNL     1      -5.258  47.300  68.440  0.00  0.00    +0.000 A 
ATOM      6  N   UNL     1      -6.579  47.518  68.283  0.00  0.00    +0.000 NA
ATOM      7  C   UNL     1      -7.366  46.441  68.136  0.00  0.00    +0.000 A 
ATOM      8  N   UNL     1      -6.938  45.169  68.109  0.00  0.00    +0.000 NA
ATOM      9  C   UNL     1      -5.617  44.980  68.254  0.00  0.00    +0.000 A 
ATOM     10  C   UNL     1      -4.718  46.016  68.405  0.00  0.00    +0.000 A 
ATOM     11  H   UNL     1      -3.024  48.033  70.025  0.00  0.00    +0.000 HD
ENDROOT
BRANCH   1  12
ATOM     12  C   UNL     1      -2.888  45.294  69.961  0.00  0.00    +0.000 C 
ATOM     13  O   UNL     1      -3.107  44.116  70.299  0.00  0.00    +0.000 OA
BRANCH  12  14
ATOM     14  O   UNL     1      -2.271  46.180  70.766  0.00  0.00    +0.000 OA
ATOM     15  H   UNL     1      -2.717  47.032  70.916  0.00  0.00    +0.000 HD
ENDBRANCH  12  14
ENDBRANCH   1  12
BRANCH   3  16
ATOM     16  C   UNL     1      -2.072  49.521  68.930  0.00  0.00    +0.000 C 
BRANCH  16  17
ATOM     17  C   UNL     1      -0.666  49.197  68.481  0.00  0.00    +0.000 A 
ATOM     18  C   UNL     1      -0.269  49.632  67.204  0.00  0.00    +0.000 A 
ATOM     19  C   UNL     1       0.888  49.135  66.612  0.00  0.00    +0.000 A 
ATOM     20  C   UNL     1       1.576  48.097  67.227  0.00  0.00    +0.000 A 
ATOM     21  C   UNL     1       1.269  47.745  68.547  0.00  0.00    +0.000 A 
ATOM     22  C   UNL     1       2.046  46.803  69.215  0.00  0.00    +0.000 A 
ATOM     23  C   UNL     1       2.308  46.985  70.559  0.00  0.00    +0.000 A 
ATOM     24  C   UNL     1       1.432  47.768  71.288  0.00  0.00    +0.000 A 
ATOM     25  C   UNL     1       0.317  48.346  70.659  0.00  0.00    +0.000 A 
ATOM     26  C   UNL     1       0.254  48.424  69.245  0.00  0.00    +0.000 A 
ENDBRANCH  16  17
ENDBRANCH   3  16
TORSDOF 4
ENDMDL
MODEL 2
REMARK VINA RESULT:      -9.0      2.327      2.995
REMARK  Name = 
REMARK  4 active torsions:
REMARK  status: ('A' for Active; 'I' for Inactive)
REMARK    1  A    between atoms: O_1  and  C_2
REMARK    2  A    between atoms: C_2  and  C_4
REMARK    3  A    between atoms: N_6  and  C_7
REMARK    4  A    between atoms: C_7  and  C_8
REMARK                            x       y       z     vdW  Elec       q    Type
REMARK                         _______ _______ _______ _____ _____    ______ ____
ROOT
ATOM      1  C   UNL     1      -5.645  49.351  67.837  0.00  0.00    +0.000 C 
ATOM      2  C   UNL     1      -4.477  50.024  68.607  0.00  0.00    +0.000 C 
ATOM      3  N   UNL     1      -3.144  49.334  68.338  0.00  0.00    +0.000 N 
ATOM      4  C   UNL     1      -3.200  47.877  68.728  0.00  0.00    +0.000 C 
ATOM      5  C   UNL     1      -4.476  47.162  68.330  0.00  0.00    +0.000 A 
ATOM      6  N   UNL     1      -4.455  45.818  68.442  0.00  0.00    +0.000 NA
ATOM      7  C   UNL     1      -5.579  45.158  68.123  0.00  0.00    +0.000 A 
ATOM      8  N   UNL     1      -6.726  45.732  67.726  0.00  0.00    +0.000 NA
ATOM      9  C   UNL     1      -6.725  47.071  67.636  0.00  0.00    +0.000 A 
ATOM     10  C   UNL     1      -5.627  47.847  67.946  0.00  0.00    +0.000 A 
ATOM     11  H   UNL     1      -3.007  49.363  67.312  0.00  0.00    +0.000 HD
ENDROOT
BRANCH   1  12
ATOM     12  C   UNL     1      -5.553  49.818  66.396  0.00  0.00    +0.000 C 
ATOM     13  O   UNL     1      -4.524  49.617  65.724  0.00  0.00    +0.000 OA
BRANCH  12  14
ATOM     14  O   UNL     1      -6.661  50.385  65.882  0.00  0.00    +0.000 OA
ATOM     15  H   UNL     1      -7.498  49.899  65.983  0.00  0.00    +0.000 HD
ENDBRANCH  12  14
ENDBRANCH   1  12
BRANCH   3  16
ATOM     16  C   UNL     1      -1.944  50.082  68.947  0.00  0.00    +0.000 C 
BRANCH  16  17
ATOM     17  C   UNL     1      -0.613  49.590  68.426  0.00  0.00    +0.000 A 
ATOM     18  C   UNL     1      -0.199  50.036  67.158  0.00  0.00    +0.000 A 
ATOM     19  C   UNL     1       0.856  49.415  66.497  0.00  0.00    +0.000 A 
ATOM     20  C   UNL     1       1.409  48.258  67.030  0.00  0.00    +0.000 A 
ATOM     21  C   UNL     1       1.098  47.880  68.342  0.00  0.00    +0.000 A 
ATOM     22  C   UNL     1       1.754  46.803  68.930  0.00  0.00    +0.000 A 
ATOM     23  C   UNL     1       2.083  46.871  70.270  0.00  0.00    +0.000 A 
ATOM     24  C   UNL     1       1.350  47.728  71.072  0.00  0.00    +0.000 A 
ATOM     25  C   UNL     1       0.309  48.490  70.517  0.00  0.00    +0.000 A 
ATOM     26  C   UNL     1       0.212  48.654  69.113  0.00  0.00    +0.000 A 
ENDBRANCH  16  17
ENDBRANCH   3  16
TORSDOF 4
ENDMDL
MODEL 3
REMARK VINA RESULT:      -8.9      2.603      4.399
REMARK  Name = 
REMARK  4 active torsions:
REMARK  status: ('A' for Active; 'I' for Inactive)
REMARK    1  A    between atoms: O_1  and  C_2
REMARK    2  A    between atoms: C_2  and  C_4
REMARK    3  A    between atoms: N_6  and  C_7
REMARK    4  A    between atoms: C_7  and  C_8
REMARK                            x       y       z     vdW  Elec       q    Type
REMARK                         _______ _______ _______ _____ _____    ______ ____
ROOT
ATOM      1  C   UNL     1      -0.846  47.221  69.429  0.00  0.00    +0.000 C 
ATOM      2  C   UNL     1      -1.058  47.791  68.000  0.00  0.00    +0.000 C 
ATOM      3  N   UNL     1      -2.527  48.092  67.719  0.00  0.00    +0.000 N 
ATOM      4  C   UNL     1      -3.374  46.853  67.873  0.00  0.00    +0.000 C 
ATOM      5  C   UNL     1      -3.030  45.995  69.075  0.00  0.00    +0.000 A 
ATOM      6  N   UNL     1      -3.918  45.025  69.375  0.00  0.00    +0.000 NA
ATOM      7  C   UNL     1      -3.629  44.230  70.418  0.00  0.00    +0.000 A 
ATOM      8  N   UNL     1      -2.517  44.311  71.166  0.00  0.00    +0.000 NA
ATOM      9  C   UNL     1      -1.644  45.276  70.837  0.00  0.00    +0.000 A 
ATOM     10  C   UNL     1      -1.840  46.142  69.782  0.00  0.00    +0.000 A 
ATOM     11  H   UNL     1      -2.831  48.754  68.455  0.00  0.00    +0.000 HD
ENDROOT
BRANCH   1  12
ATOM     12  C   UNL     1      -0.917  48.395  70.388  0.00  0.00    +0.000 C 
ATOM     13  O   UNL     1       0.072  48.726  71.068  0.00  0.00    +0.000 OA
BRANCH  12  14
ATOM     14  O   UNL     1      -2.074  49.085  70.400  0.00  0.00    +0.000 OA
ATOM     15  H   UNL     1      -2.013  50.057  70.404  0.00  0.00    +0.000 HD
ENDBRANCH  12  14
ENDBRANCH   1  12
BRANCH   3  16
ATOM     16  C   UNL     1      -2.747  48.819  66.380  0.00  0.00    +0.000 C 
BRANCH  16  17
ATOM     17  C   UNL     1      -1.998  50.128  66.285  0.00  0.00    +0.000 A 
ATOM     18  C   UNL     1      -1.091  50.290  65.222  0.00  0.00    +0.000 A 
ATOM     19  C   UNL     1      -0.168  51.330  65.228  0.00  0.00    +0.000 A 
ATOM     20  C   UNL     1      -0.046  52.127  66.359  0.00  0.00    +0.000 A 
ATOM     21  C   UNL     1      -1.019  52.061  67.364  0.00  0.00    +0.000 A 
ATOM     22  C   UNL     1      -0.980  52.954  68.430  0.00  0.00    +0.000 A 
ATOM     23  C   UNL     1      -2.168  53.446  68.934  0.00  0.00    +0.000 A 
ATOM     24  C   UNL     1      -3.316  52.703  68.726  0.00  0.00    +0.000 A 
ATOM     25  C   UNL     1      -3.247  51.488  68.023  0.00  0.00    +0.000 A 
ATOM     26  C   UNL     1      -2.107  51.177  67.243  0.00  0.00    +0.000 A 
ENDBRANCH  16  17
ENDBRANCH   3  16
TORSDOF 4
ENDMDL
MODEL 4
REMARK VINA RESULT:      -8.9      2.886      3.668
REMARK  Name = 
REMARK  4 active torsions:
REMARK  status: ('A' for Active; 'I' for Inactive)
REMARK    1  A    between atoms: O_1  and  C_2
REMARK    2  A    between atoms: C_2  and  C_4
REMARK    3  A    between atoms: N_6  and  C_7
REMARK    4  A    between atoms: C_7  and  C_8
REMARK                            x       y       z     vdW  Elec       q    Type
REMARK                         _______ _______ _______ _____ _____    ______ ____
ROOT
ATOM      1  C   UNL     1      -4.474  50.935  66.102  0.00  0.00    +0.000 C 
ATOM      2  C   UNL     1      -3.438  51.207  67.226  0.00  0.00    +0.000 C 
ATOM      3  N   UNL     1      -2.998  49.922  67.918  0.00  0.00    +0.000 N 
ATOM      4  C   UNL     1      -4.178  49.197  68.518  0.00  0.00    +0.000 C 
ATOM      5  C   UNL     1      -5.412  49.156  67.638  0.00  0.00    +0.000 A 
ATOM      6  N   UNL     1      -6.388  48.316  68.035  0.00  0.00    +0.000 NA
ATOM      7  C   UNL     1      -7.505  48.277  67.292  0.00  0.00    +0.000 A 
ATOM      8  N   UNL     1      -7.734  49.026  66.201  0.00  0.00    +0.000 NA
ATOM      9  C   UNL     1      -6.752  49.864  65.835  0.00  0.00    +0.000 A 
ATOM     10  C   UNL     1      -5.567  49.987  66.531  0.00  0.00    +0.000 A 
ATOM     11  H   UNL     1      -2.619  49.309  67.174  0.00  0.00    +0.000 HD
ENDROOT
BRANCH   1  12
ATOM     12  C   UNL     1      -3.702  50.409  64.906  0.00  0.00    +0.000 C 
ATOM     13  O   UNL     1      -2.896  49.468  65.029  0.00  0.00    +0.000 OA
BRANCH  12  14
ATOM     14  O   UNL     1      -3.997  50.966  63.715  0.00  0.00    +0.000 OA
ATOM     15  H   UNL     1      -3.969  50.387  62.933  0.00  0.00    +0.000 HD
ENDBRANCH  12  14
ENDBRANCH   1  12
BRANCH   3  16
ATOM     16  C   UNL     1      -1.845  50.138  68.915  0.00  0.00    +0.000 C 
BRANCH  16  17
ATOM     17  C   UNL     1      -0.522  49.602  68.418  0.00  0.00    +0.000 A 
ATOM     18  C   UNL     1      -0.076  50.025  67.153  0.00  0.00    +0.000 A 
ATOM     19  C   UNL     1       0.968  49.367  66.512  0.00  0.00    +0.000 A 
ATOM     20  C   UNL     1       1.478  48.198  67.062  0.00  0.00    +0.000 A 
ATOM     21  C   UNL     1       1.136  47.839  68.372  0.00  0.00    +0.000 A 
ATOM     22  C   UNL     1       1.750  46.748  68.978  0.00  0.00    +0.000 A 
ATOM     23  C   UNL     1       2.061  46.816  70.321  0.00  0.00    +0.000 A 
ATOM     24  C   UNL     1       1.344  47.701  71.107  0.00  0.00    +0.000 A 
ATOM     25  C   UNL     1       0.335  48.491  70.531  0.00  0.00    +0.000 A 
ATOM     26  C   UNL     1       0.263  48.647  69.124  0.00  0.00    +0.000 A 
ENDBRANCH  16  17
ENDBRANCH   3  16
TORSDOF 4
ENDMDL
MODEL 5
REMARK VINA RESULT:      -8.8      1.789      3.126
REMARK  Name = 
REMARK  4 active torsions:
REMARK  status: ('A' for Active; 'I' for Inactive)
REMARK    1  A    between atoms: O_1  and  C_2
REMARK    2  A    between atoms: C_2  and  C_4
REMARK    3  A    between atoms: N_6  and  C_7
REMARK    4  A    between atoms: C_7  and  C_8
REMARK                            x       y       z     vdW  Elec       q    Type
REMARK                         _______ _______ _______ _____ _____    ______ ____
ROOT
ATOM      1  C   UNL     1      -3.672  43.904  71.069  0.00  0.00    +0.000 C 
ATOM      2  C   UNL     1      -2.210  44.360  70.818  0.00  0.00    +0.000 C 
ATOM      3  N   UNL     1      -2.135  45.818  70.376  0.00  0.00    +0.000 N 
ATOM      4  C   UNL     1      -2.933  46.044  69.114  0.00  0.00    +0.000 C 
ATOM      5  C   UNL     1      -4.279  45.348  69.082  0.00  0.00    +0.000 A 
ATOM      6  N   UNL     1      -5.110  45.725  68.089  0.00  0.00    +0.000 NA
ATOM      7  C   UNL     1      -6.300  45.107  68.016  0.00  0.00    +0.000 A 
ATOM      8  N   UNL     1      -6.714  44.130  68.838  0.00  0.00    +0.000 NA
ATOM      9  C   UNL     1      -5.863  43.764  69.809  0.00  0.00    +0.000 A 
ATOM     10  C   UNL     1      -4.615  44.329  69.970  0.00  0.00    +0.000 A 
ATOM     11  H   UNL     1      -2.596  46.368  71.122  0.00  0.00    +0.000 HD
ENDROOT
BRANCH   1  12
ATOM     12  C   UNL     1      -4.085  44.463  72.418  0.00  0.00    +0.000 C 
ATOM     13  O   UNL     1      -5.075  44.012  73.022  0.00  0.00    +0.000 OA
BRANCH  12  14
ATOM     14  O   UNL     1      -3.281  45.409  72.942  0.00  0.00    +0.000 OA
ATOM     15  H   UNL     1      -2.925  46.079  72.332  0.00  0.00    +0.000 HD
ENDBRANCH  12  14
ENDBRANCH   1  12
BRANCH   3  16
ATOM     16  C   UNL     1      -0.693  46.348  70.288  0.00  0.00    +0.000 C 
BRANCH  16  17
ATOM     17  C   UNL     1      -0.614  47.776  69.800  0.00  0.00    +0.000 A 
ATOM     18  C   UNL     1      -1.223  48.773  70.584  0.00  0.00    +0.000 A 
ATOM     19  C   UNL     1      -1.442  50.046  70.070  0.00  0.00    +0.000 A 
ATOM     20  C   UNL     1      -1.189  50.292  68.727  0.00  0.00    +0.000 A 
ATOM     21  C   UNL     1      -0.470  49.357  67.972  0.00  0.00    +0.000 A 
ATOM     22  C   UNL     1      -0.092  49.658  66.667  0.00  0.00    +0.000 A 
ATOM     23  C   UNL     1       1.140  49.229  66.212  0.00  0.00    +0.000 A 
ATOM     24  C   UNL     1       1.721  48.144  66.844  0.00  0.00    +0.000 A 
ATOM     25  C   UNL     1       1.056  47.514  67.909  0.00  0.00    +0.000 A 
ATOM     26  C   UNL     1      -0.022  48.161  68.563  0.00  0.00    +0.000 A 
ENDBRANCH  16  17
ENDBRANCH   3  16
TORSDOF 4
ENDMDL
MODEL 6
REMARK VINA RESULT:      -8.6      2.149      2.407
REMARK  Name = 
REMARK  4 active torsions:
REMARK  status: ('A' for Active; 'I' for Inactive)
REMARK    1  A    between atoms: O_1  and  C_2
REMARK    2  A    between atoms: C_2  and  C_4
REMARK    3  A    between atoms: N_6  and  C_7
REMARK    4  A    between atoms: C_7  and  C_8
REMARK                            x       y       z     vdW  Elec       q    Type
REMARK                         _______ _______ _______ _____ _____    ______ ____
ROOT
ATOM      1  C   UNL     1      -4.018  46.988  67.026  0.00  0.00    +0.000 C 
ATOM      2  C   UNL     1      -2.812  47.740  67.651  0.00  0.00    +0.000 C 
ATOM      3  N   UNL     1      -3.208  49.114  68.179  0.00  0.00    +0.000 N 
ATOM      4  C   UNL     1      -3.791  49.970  67.080  0.00  0.00    +0.000 C 
ATOM      5  C   UNL     1      -4.751  49.247  66.155  0.00  0.00    +0.000 A 
ATOM      6  N   UNL     1      -5.469  50.032  65.327  0.00  0.00    +0.000 NA
ATOM      7  C   UNL     1      -6.308  49.421  64.476  0.00  0.00    +0.000 A 
ATOM      8  N   UNL     1      -6.469  48.092  64.371  0.00  0.00    +0.000 NA
ATOM      9  C   UNL     1      -5.733  47.333  65.197  0.00  0.00    +0.000 A 
ATOM     10  C   UNL     1      -4.836  47.858  66.105  0.00  0.00    +0.000 A 
ATOM     11  H   UNL     1      -3.967  48.952  68.864  0.00  0.00    +0.000 HD
ENDROOT
BRANCH   1  12
ATOM     12  C   UNL     1      -4.845  46.444  68.177  0.00  0.00    +0.000 C 
ATOM     13  O   UNL     1      -4.803  45.238  68.481  0.00  0.00    +0.000 OA
BRANCH  12  14
ATOM     14  O   UNL     1      -5.554  47.349  68.880  0.00  0.00    +0.000 OA
ATOM     15  H   UNL     1      -6.264  47.011  69.454  0.00  0.00    +0.000 HD
ENDBRANCH  12  14
ENDBRANCH   1  12
BRANCH   3  16
ATOM     16  C   UNL     1      -2.077  49.810  68.958  0.00  0.00    +0.000 C 
BRANCH  16  17
ATOM     17  C   UNL     1      -0.699  49.436  68.464  0.00  0.00    +0.000 A 
ATOM     18  C   UNL     1      -0.297  49.924  67.207  0.00  0.00    +0.000 A 
ATOM     19  C   UNL     1       0.820  49.398  66.565  0.00  0.00    +0.000 A 
ATOM     20  C   UNL     1       1.456  48.288  67.103  0.00  0.00    +0.000 A 
ATOM     21  C   UNL     1       1.150  47.874  68.406  0.00  0.00    +0.000 A 
ATOM     22  C   UNL     1       1.881  46.852  69.002  0.00  0.00    +0.000 A 
ATOM     23  C   UNL     1       2.175  46.936  70.349  0.00  0.00    +0.000 A 
ATOM     24  C   UNL     1       1.356  47.722  71.140  0.00  0.00    +0.000 A 
ATOM     25  C   UNL     1       0.267  48.400  70.567  0.00  0.00    +0.000 A 
ATOM     26  C   UNL     1       0.186  48.566  69.163  0.00  0.00    +0.000 A 
ENDBRANCH  16  17
ENDBRANCH   3  16
TORSDOF 4
ENDMDL
MODEL 7
REMARK VINA RESULT:      -8.6      3.256      6.136
REMARK  Name = 
REMARK  4 active torsions:
REMARK  status: ('A' for Active; 'I' for Inactive)
REMARK    1  A    between atoms: O_1  and  C_2
REMARK    2  A    between atoms: C_2  and  C_4
REMARK    3  A    between atoms: N_6  and  C_7
REMARK    4  A    between atoms: C_7  and  C_8
REMARK                            x       y       z     vdW  Elec       q    Type
REMARK                         _______ _______ _______ _____ _____    ______ ____
ROOT
ATOM      1  C   UNL     1      -0.943  49.536  69.035  0.00  0.00    +0.000 C 
ATOM      2  C   UNL     1      -0.901  49.663  67.489  0.00  0.00    +0.000 C 
ATOM      3  N   UNL     1      -0.788  48.303  66.808  0.00  0.00    +0.000 N 
ATOM      4  C   UNL     1       0.451  47.571  67.263  0.00  0.00    +0.000 C 
ATOM      5  C   UNL     1       0.729  47.658  68.750  0.00  0.00    +0.000 A 
ATOM      6  N   UNL     1       1.676  46.821  69.220  0.00  0.00    +0.000 NA
ATOM      7  C   UNL     1       1.965  46.893  70.529  0.00  0.00    +0.000 A 
ATOM      8  N   UNL     1       1.403  47.748  71.398  0.00  0.00    +0.000 NA
ATOM      9  C   UNL     1       0.473  48.579  70.903  0.00  0.00    +0.000 A 
ATOM     10  C   UNL     1       0.106  48.593  69.573  0.00  0.00    +0.000 A 
ATOM     11  H   UNL     1      -1.599  47.749  67.134  0.00  0.00    +0.000 HD
ENDROOT
BRANCH   1  12
ATOM     12  C   UNL     1      -2.347  49.094  69.406  0.00  0.00    +0.000 C 
ATOM     13  O   UNL     1      -3.222  49.928  69.701  0.00  0.00    +0.000 OA
BRANCH  12  14
ATOM     14  O   UNL     1      -2.597  47.773  69.322  0.00  0.00    +0.000 OA
ATOM     15  H   UNL     1      -1.983  47.173  69.781  0.00  0.00    +0.000 HD
ENDBRANCH  12  14
ENDBRANCH   1  12
BRANCH   3  16
ATOM     16  C   UNL     1      -0.920  48.384  65.276  0.00  0.00    +0.000 C 
BRANCH  16  17
ATOM     17  C   UNL     1      -0.179  49.557  64.677  0.00  0.00    +0.000 A 
ATOM     18  C   UNL     1      -0.705  50.844  64.892  0.00  0.00    +0.000 A 
ATOM     19  C   UNL     1      -0.254  51.929  64.147  0.00  0.00    +0.000 A 
ATOM     20  C   UNL     1       0.618  51.713  63.088  0.00  0.00    +0.000 A 
ATOM     21  C   UNL     1       1.244  50.469  62.944  0.00  0.00    +0.000 A 
ATOM     22  C   UNL     1       2.222  50.289  61.971  0.00  0.00    +0.000 A 
ATOM     23  C   UNL     1       3.315  49.497  62.260  0.00  0.00    +0.000 A 
ATOM     24  C   UNL     1       3.179  48.545  63.255  0.00  0.00    +0.000 A 
ATOM     25  C   UNL     1       1.956  48.408  63.932  0.00  0.00    +0.000 A 
ATOM     26  C   UNL     1       0.978  49.431  63.856  0.00  0.00    +0.000 A 
ENDBRANCH  16  17
ENDBRANCH   3  16
TORSDOF 4
ENDMDL
MODEL 8
REMARK VINA RESULT:      -8.5      3.500      6.774
REMARK  Name = 
REMARK  4 active torsions:
REMARK  status: ('A' for Active; 'I' for Inactive)
REMARK    1  A    between atoms: O_1  and  C_2
REMARK    2  A    between atoms: C_2  and  C_4
REMARK    3  A    between atoms: N_6  and  C_7
REMARK    4  A    between atoms: C_7  and  C_8
REMARK                            x       y       z     vdW  Elec       q    Type
REMARK                         _______ _______ _______ _____ _____    ______ ____
ROOT
ATOM      1  C   UNL     1       1.499  48.886  65.144  0.00  0.00    +0.000 C 
ATOM      2  C   UNL     1       1.252  48.891  66.676  0.00  0.00    +0.000 C 
ATOM      3  N   UNL     1      -0.196  49.228  67.019  0.00  0.00    +0.000 N 
ATOM      4  C   UNL     1      -0.584  50.577  66.466  0.00  0.00    +0.000 C 
ATOM      5  C   UNL     1      -0.094  50.850  65.058  0.00  0.00    +0.000 A 
ATOM      6  N   UNL     1      -0.627  51.930  64.451  0.00  0.00    +0.000 NA
ATOM      7  C   UNL     1      -0.193  52.215  63.213  0.00  0.00    +0.000 A 
ATOM      8  N   UNL     1       0.744  51.523  62.544  0.00  0.00    +0.000 NA
ATOM      9  C   UNL     1       1.268  50.462  63.176  0.00  0.00    +0.000 A 
ATOM     10  C   UNL     1       0.898  50.084  64.451  0.00  0.00    +0.000 A 
ATOM     11  H   UNL     1      -0.778  48.526  66.530  0.00  0.00    +0.000 HD
ENDROOT
BRANCH   1  12
ATOM     12  C   UNL     1       0.938  47.581  64.609  0.00  0.00    +0.000 C 
ATOM     13  O   UNL     1       1.681  46.606  64.393  0.00  0.00    +0.000 OA
BRANCH  12  14
ATOM     14  O   UNL     1      -0.400  47.525  64.457  0.00  0.00    +0.000 OA
ATOM     15  H   UNL     1      -0.887  46.905  65.026  0.00  0.00    +0.000 HD
ENDBRANCH  12  14
ENDBRANCH   1  12
BRANCH   3  16
ATOM     16  C   UNL     1      -0.513  49.069  68.518  0.00  0.00    +0.000 C 
BRANCH  16  17
ATOM     17  C   UNL     1      -1.625  48.082  68.788  0.00  0.00    +0.000 A 
ATOM     18  C   UNL     1      -1.270  46.813  69.282  0.00  0.00    +0.000 A 
ATOM     19  C   UNL     1      -2.190  45.770  69.282  0.00  0.00    +0.000 A 
ATOM     20  C   UNL     1      -3.419  45.943  68.659  0.00  0.00    +0.000 A 
ATOM     21  C   UNL     1      -3.831  47.226  68.280  0.00  0.00    +0.000 A 
ATOM     22  C   UNL     1      -5.116  47.427  67.784  0.00  0.00    +0.000 A 
ATOM     23  C   UNL     1      -5.793  48.581  68.129  0.00  0.00    +0.000 A 
ATOM     24  C   UNL     1      -5.045  49.679  68.512  0.00  0.00    +0.000 A 
ATOM     25  C   UNL     1      -3.642  49.598  68.539  0.00  0.00    +0.000 A 
ATOM     26  C   UNL     1      -2.998  48.337  68.509  0.00  0.00    +0.000 A 
ENDBRANCH  16  17
ENDBRANCH   3  16
TORSDOF 4
ENDMDL
MODEL 9
REMARK VINA RESULT:      -8.5      3.545      6.494
REMARK  Name = 
REMARK  4 active torsions:
REMARK  status: ('A' for Active; 'I' for Inactive)
REMARK    1  A    between atoms: O_1  and  C_2
REMARK    2  A    between atoms: C_2  and  C_4
REMARK    3  A    between atoms: N_6  and  C_7
REMARK    4  A    between atoms: C_7  and  C_8
REMARK                            x       y       z     vdW  Elec       q    Type
REMARK                         _______ _______ _______ _____ _____    ______ ____
ROOT
ATOM      1  C   UNL     1      -1.145  49.847  68.671  0.00  0.00    +0.000 C 
ATOM      2  C   UNL     1      -0.609  50.479  67.359  0.00  0.00    +0.000 C 
ATOM      3  N   UNL     1       0.057  49.444  66.458  0.00  0.00    +0.000 N 
ATOM      4  C   UNL     1       1.204  48.766  67.168  0.00  0.00    +0.000 C 
ATOM      5  C   UNL     1       0.927  48.395  68.611  0.00  0.00    +0.000 A 
ATOM      6  N   UNL     1       1.829  47.578  69.190  0.00  0.00    +0.000 NA
ATOM      7  C   UNL     1       1.626  47.252  70.476  0.00  0.00    +0.000 A 
ATOM      8  N   UNL     1       0.611  47.696  71.235  0.00  0.00    +0.000 NA
ATOM      9  C   UNL     1      -0.265  48.519  70.639  0.00  0.00    +0.000 A 
ATOM     10  C   UNL     1      -0.148  48.922  69.324  0.00  0.00    +0.000 A 
ATOM     11  H   UNL     1      -0.656  48.715  66.281  0.00  0.00    +0.000 HD
ENDROOT
BRANCH   1  12
ATOM     12  C   UNL     1      -2.438  49.134  68.324  0.00  0.00    +0.000 C 
ATOM     13  O   UNL     1      -2.718  48.856  67.143  0.00  0.00    +0.000 OA
BRANCH  12  14
ATOM     14  O   UNL     1      -3.212  48.764  69.363  0.00  0.00    +0.000 OA
ATOM     15  H   UNL     1      -3.804  49.438  69.741  0.00  0.00    +0.000 HD
ENDBRANCH  12  14
ENDBRANCH   1  12
BRANCH   3  16
ATOM     16  C   UNL     1       0.441  50.005  65.077  0.00  0.00    +0.000 C 
BRANCH  16  17
ATOM     17  C   UNL     1       1.269  49.044  64.255  0.00  0.00    +0.000 A 
ATOM     18  C   UNL     1       1.218  47.679  64.594  0.00  0.00    +0.000 A 
ATOM     19  C   UNL     1       2.155  46.786  64.083  0.00  0.00    +0.000 A 
ATOM     20  C   UNL     1       3.230  47.270  63.351  0.00  0.00    +0.000 A 
ATOM     21  C   UNL     1       3.225  48.596  62.902  0.00  0.00    +0.000 A 
ATOM     22  C   UNL     1       4.230  49.048  62.051  0.00  0.00    +0.000 A 
ATOM     23  C   UNL     1       3.905  49.933  61.043  0.00  0.00    +0.000 A 
ATOM     24  C   UNL     1       2.767  50.704  61.201  0.00  0.00    +0.000 A 
ATOM     25  C   UNL     1       1.986  50.571  62.362  0.00  0.00    +0.000 A 
ATOM     26  C   UNL     1       2.146  49.446  63.207  0.00  0.00    +0.000 A 
ENDBRANCH  16  17
ENDBRANCH   3  16
TORSDOF 4
ENDMDL
