REMARK  Name = 3fy1
REMARK  14 active torsions:
REMARK  status: ('A' for Active; 'I' for Inactive)
REMARK    1  A    between atoms: C_2  and  N_35
REMARK    2  A    between atoms: C_4  and  O_34
REMARK    3  A    between atoms: C_6  and  O_13
REMARK    4  A    between atoms: C_8  and  C_10
REMARK    5  A    between atoms: C_10  and  O_11
REMARK    6  A    between atoms: O_13  and  C_14
REMARK    7  A    between atoms: C_16  and  N_30
REMARK    8  A    between atoms: C_18  and  O_29
REMARK    9  A    between atoms: C_20  and  O_28
REMARK   10  A    between atoms: C_22  and  C_24
REMARK   11  A    between atoms: C_24  and  O_25
REMARK   12  A    between atoms: O_25  and  C_26
REMARK   13  A    between atoms: C_31  and  C_33
REMARK   14  A    between atoms: C_36  and  C_38
REMARK                            x       y       z     vdW  Elec       q    Type
REMARK                         _______ _______ _______ _____ _____    ______ ____
ROOT
ATOM      1  C   UNL     1       0.205  -2.465   1.833  0.00  0.00    +0.274 C 
ATOM      2  O   UNL     1       0.811  -2.174   0.559  0.00  0.00    -0.341 OA
ATOM      3  C   UNL     1       0.320  -2.777  -0.637  0.00  0.00    +0.178 C 
ATOM      4  C   UNL     1       0.125  -4.284  -0.491  0.00  0.00    +0.176 C 
ATOM      5  C   UNL     1      -0.863  -4.545   0.650  0.00  0.00    +0.171 C 
ATOM      6  C   UNL     1      -0.345  -3.949   1.978  0.00  0.00    +0.160 C 
ENDROOT
BRANCH   6   7
ATOM      7  N   UNL     1       0.740  -4.829   2.450  0.00  0.00    -0.305 N 
ATOM      8  H   UNL     1       1.422  -5.069   1.733  0.00  0.00    +0.149 HD
ATOM      9  C   UNL     1       1.054  -5.052   3.761  0.00  0.00    +0.210 C 
ATOM     10  C   UNL     1       2.385  -5.731   3.939  0.00  0.00    +0.109 C 
ATOM     11  O   UNL     1       0.336  -4.741   4.708  0.00  0.00    -0.276 OA
ENDBRANCH   6   7
BRANCH   4  12
ATOM     12  O   UNL     1       1.393  -4.922  -0.232  0.00  0.00    -0.387 OA
ATOM     13  H   UNL     1       1.260  -5.870  -0.425  0.00  0.00    +0.210 HD
ENDBRANCH   4  12
BRANCH   5  14
ATOM     14  O   UNL     1      -1.073  -5.972   0.707  0.00  0.00    -0.387 OA
ATOM     15  H   UNL     1      -1.865  -6.130   1.251  0.00  0.00    +0.210 HD
ENDBRANCH   5  14
BRANCH   1  16
ATOM     16  O   UNL     1      -0.650  -1.367   2.197  0.00  0.00    -0.341 OA
BRANCH  16  20
ATOM     17  C   UNL     1      -0.708   1.227   5.219  0.00  0.00    +0.185 C 
ATOM     18  O   UNL     1      -1.386   1.269   3.952  0.00  0.00    -0.370 OA
ATOM     19  C   UNL     1      -2.049   0.055   3.573  0.00  0.00    +0.175 C 
ATOM     20  C   UNL     1      -1.134  -1.219   3.565  0.00  0.00    +0.183 C 
ATOM     21  C   UNL     1      -0.110  -1.170   4.743  0.00  0.00    +0.168 C 
ATOM     22  C   UNL     1       0.421   0.217   5.154  0.00  0.00    +0.130 C 
BRANCH  22  23
ATOM     23  N   UNL     1       1.485   0.665   4.255  0.00  0.00    -0.308 N 
ATOM     24  H   UNL     1       1.232   0.757   3.276  0.00  0.00    +0.149 HD
ATOM     25  C   UNL     1       2.808   0.481   4.582  0.00  0.00    +0.210 C 
ATOM     26  C   UNL     1       3.740   0.570   3.409  0.00  0.00    +0.109 C 
ATOM     27  O   UNL     1       3.208   0.267   5.727  0.00  0.00    -0.276 OA
ENDBRANCH  22  23
BRANCH  21  28
ATOM     28  O   UNL     1       0.985  -2.065   4.564  0.00  0.00    -0.387 OA
ATOM     29  H   UNL     1       1.413  -2.196   5.428  0.00  0.00    +0.210 HD
ENDBRANCH  21  28
BRANCH  19  30
ATOM     30  C   UNL     1      -3.376  -0.099   4.342  0.00  0.00    +0.190 C 
BRANCH  30  31
ATOM     31  O   UNL     1      -3.201  -0.373   5.729  0.00  0.00    -0.392 OA
ATOM     32  H   UNL     1      -3.771   0.256   6.216  0.00  0.00    +0.210 HD
ENDBRANCH  30  31
ENDBRANCH  19  30
ENDBRANCH  16  20
ENDBRANCH   1  16
BRANCH   3  33
ATOM     33  C   UNL     1      -0.960  -2.117  -1.191  0.00  0.00    +0.193 C 
BRANCH  33  34
ATOM     34  O   UNL     1      -0.915  -0.699  -1.300  0.00  0.00    -0.380 OA
ATOM     35  C   UNL     1       0.079  -0.224  -2.191  0.00  0.00    +0.194 C 
ENDBRANCH  33  34
ENDBRANCH   3  33
TORSDOF 11
