@<TRIPOS>MOLECULE
3fy1
88 91 3 0 0
SMALL
AMBER ff99SB


@<TRIPOS>ATOM
      1 C1         -0.0980   49.5590   66.5500 C.3       1 NAA    0.1790
      2 C2         -0.3560   51.0420   66.1490 C.3       1 NAA    0.1019
      3 C3         -0.5390   51.1510   64.6130 C.3       1 NAA    0.1061
      4 C4          0.7130   50.4210   63.9230 C.3       1 NAA    0.1171
      5 C5          0.7920   48.9320   64.4060 C.3       1 NAA    0.1126
      6 C6          1.9760   48.1720   63.8220 C.3       1 NAA    0.0721
      7 C7         -1.5470   52.3280   67.8610 C.2       1 NAA    0.2090
      8 C8         -2.8550   52.5940   68.5950 C.3       1 NAA    0.0127
      9 N2         -1.5760   51.4050   66.9230 N.am      1 NAA   -0.3050
     10 O3         -1.7650   50.5360   64.2170 O.3       1 NAA   -0.3882
     11 O4          0.6700   50.4310   62.5090 O.3       1 NAA   -0.3417
     12 O5          0.9860   48.9740   65.8180 O.3       1 NAA   -0.3421
     13 O6          1.9690   46.8350   64.3950 O.3       1 NAA   -0.3936
     14 O7         -0.5200   52.9520   68.1380 O.2       1 NAA   -0.2781
     15 H1         -1.0041   48.9744   66.3907 H         1 NAA    0.0945
     16 H2          0.4820   51.6624   66.4667 H         1 NAA    0.0586
     17 H3         -0.5506   52.2017   64.3232 H         1 NAA    0.0651
     18 H4          1.6225   50.9312   64.2402 H         1 NAA    0.0662
     19 H5         -0.1375   48.4132   64.1717 H         1 NAA    0.0658
     20 H62         1.8801   48.1117   62.7379 H         1 NAA    0.0592
     21 H63         2.9047   48.6798   64.0823 H         1 NAA    0.0592
     22 HN2        -2.4457   50.9318   66.7234 H         1 NAA    0.1500
     23 HO6         2.2359   46.1988   63.7274 H         1 NAA    0.2102
     24 H81        -2.7014   53.3733   69.3415 H         1 NAA    0.0328
     25 H82        -3.1874   51.6801   69.0873 H         1 NAA    0.0328
     26 H83        -3.6125   52.9185   67.8816 H         1 NAA    0.0328
     27 HO3        -1.8676   50.6094   63.2653 H         1 NAA    0.2107
     28 C1          1.2380   51.5650   61.8910 C.3       2 NA1    0.1791
     29 C2          1.8330   51.1340   60.5210 C.3       2 NA1    0.1019
     30 C3          2.0200   52.2860   59.5380 C.3       2 NA1    0.1057
     31 C4          0.7270   53.1330   59.4940 C.3       2 NA1    0.1104
     32 C5          0.3920   53.6480   60.9610 C.3       2 NA1    0.1125
     33 C6         -0.8480   54.6040   61.0230 C.3       2 NA1    0.0752
     34 C7          3.3150   49.1500   60.6760 C.2       2 NA1    0.2090
     35 C8          4.7500   48.7660   61.0300 C.3       2 NA1    0.0127
     36 N2          3.0890   50.4410   60.7820 N.am      2 NA1   -0.3050
     37 O3          3.1140   53.0770   59.9670 O.3       2 NA1   -0.3882
     38 O4          0.9440   54.1890   58.5970 O.3       2 NA1   -0.3875
     39 O5          0.0780   52.4230   61.7050 O.3       2 NA1   -0.3421
     40 O6         -1.9550   54.1590   60.1980 O.3       2 NA1   -0.3819
     41 C9         -2.9240   53.4480   60.8100 C.3       2 NA1    0.0356
     42 O7          2.4860   48.3320   60.3460 O.2       2 NA1   -0.2781
     43 H1          1.9889   52.0355   62.5257 H         2 NA1    0.0945
     44 H2          1.1455   50.4189   60.0693 H         2 NA1    0.0586
     45 H3          2.2272   51.8868   58.5451 H         2 NA1    0.0651
     46 H4         -0.0956   52.5162   59.1321 H         2 NA1    0.0658
     47 H5          1.2642   54.1369   61.3949 H         2 NA1    0.0658
     48 H62        -0.5398   55.5932   60.6846 H         2 NA1    0.0595
     49 H63        -1.1860   54.6753   62.0568 H         2 NA1    0.0595
     50 HN2         3.8679   51.0132   61.0753 H         2 NA1    0.1500
     51 HO3         3.2416   53.8060   59.3555 H         2 NA1    0.2107
     52 HO4         0.1558   54.7348   58.5479 H         2 NA1    0.2107
     53 H91        -3.6904   53.1773   60.0838 H         2 NA1    0.0530
     54 H92        -3.3704   54.0494   61.6019 H         2 NA1    0.0530
     55 H93        -2.4944   52.5429   61.2394 H         2 NA1    0.0530
     56 H81         4.8751   47.6884   60.9236 H         2 NA1    0.0328
     57 H82         4.9600   49.0560   62.0595 H         2 NA1    0.0328
     58 H83         5.4394   49.2797   60.3600 H         2 NA1    0.0328
     59 C1          0.6130   47.3110   70.7700 C.3       3 AMI    0.0999
     60 C2          1.3710   46.5090   69.6920 C.3       3 AMI    0.1098
     61 C3          1.4920   47.4730   68.5120 C.3       3 AMI    0.1057
     62 C4          0.2030   48.3100   68.5980 C.3       3 AMI    0.0964
     63 C5          0.2500   48.6350   70.0890 C.3       3 AMI    0.0402
     64 C6         -1.0900   49.2500   70.6530 C.3       3 AMI    0.0511
     65 C7          2.7150   46.7760   71.4920 C.2       3 AMI    0.2290
     66 C8          5.0820   46.1160   71.8870 C.3       3 AMI    0.0030
     67 C9          3.7610   47.3140   73.6570 C.3       3 AMI    0.0030
     68 N2          2.6510   46.2430   70.2670 N.2       3 AMI   -0.2396
     69 N7          3.8330   46.8230   72.2570 N.pl3     3 AMI   -0.3023
     70 O3          1.5270   46.6780   67.3260 O.3       3 AMI   -0.3881
     71 O4          0.2330   49.5540   67.9210 O.3       3 AMI   -0.3441
     72 O6         -2.2020   48.3610   70.3700 O.3       3 AMI   -0.3959
     73 O7          1.5760   47.4660   71.8410 O.3       3 AMI   -0.3114
     74 H1         -0.2769   46.7804   71.1086 H         3 AMI    0.0639
     75 H2          0.8467   45.5930   69.4196 H         3 AMI    0.0610
     76 H3          2.3801   48.0990   68.5984 H         3 AMI    0.0652
     77 H4         -0.6794   47.7259   68.3367 H         3 AMI    0.0638
     78 H5          1.0574   49.3464   70.2629 H         3 AMI    0.0382
     79 H62        -1.2707   50.2156   70.1807 H         3 AMI    0.0569
     80 H63        -1.0004   49.3856   71.7308 H         3 AMI    0.0569
     81 HO3         1.2986   47.2220   66.5687 H         3 AMI    0.2107
     82 H81         5.0270   45.8015   70.8448 H         3 AMI    0.0433
     83 H82         5.2061   45.2405   72.5244 H         3 AMI    0.0433
     84 H83         5.9316   46.7857   72.0200 H         3 AMI    0.0433
     85 H91         2.8063   47.8147   73.8183 H         3 AMI    0.0433
     86 H92         3.8493   46.4711   74.3424 H         3 AMI    0.0433
     87 H93         4.5748   48.0162   73.8381 H         3 AMI    0.0433
     88 HO6        -3.0126   48.7417   70.7158 H         3 AMI    0.2101
@<TRIPOS>BOND
     1    1    2 1
     2    1   12 1
     3    1   71 1
     4    2    3 1
     5    2    9 1
     6    3    4 1
     7    3   10 1
     8    4    5 1
     9    4   11 1
    10    5    6 1
    11    5   12 1
    12    6   13 1
    13    7    8 1
    14    7    9 am
    15    7   14 2
    16   11   28 1
    17   28   29 1
    18   28   39 1
    19   29   30 1
    20   29   36 1
    21   30   31 1
    22   30   37 1
    23   31   32 1
    24   31   38 1
    25   32   33 1
    26   32   39 1
    27   33   40 1
    28   34   35 1
    29   34   36 am
    30   34   42 2
    31   40   41 1
    32   59   60 1
    33   59   63 1
    34   59   73 1
    35   60   61 1
    36   60   68 1
    37   61   62 1
    38   61   70 1
    39   62   63 1
    40   62   71 1
    41   63   64 1
    42   64   72 1
    43   65   68 2
    44   65   69 2
    45   65   73 1
    46   66   69 1
    47   67   69 1
    48   15    1 1
    49   16    2 1
    50   17    3 1
    51   18    4 1
    52   19    5 1
    53   20    6 1
    54   21    6 1
    55   22    9 1
    56   43   28 1
    57   44   29 1
    58   45   30 1
    59   46   31 1
    60   47   32 1
    61   48   33 1
    62   49   33 1
    63   50   36 1
    64   74   59 1
    65   75   60 1
    66   76   61 1
    67   77   62 1
    68   78   63 1
    69   79   64 1
    70   80   64 1
    71   81   70 1
    72   51   37 1
    73   52   38 1
    74   23   13 1
    75   82   66 1
    76   83   66 1
    77   84   66 1
    78   53   41 1
    79   54   41 1
    80   55   41 1
    81   85   67 1
    82   86   67 1
    83   87   67 1
    84   88   72 1
    85   24    8 1
    86   25    8 1
    87   26    8 1
    88   56   35 1
    89   57   35 1
    90   58   35 1
    91   27   10 1
@<TRIPOS>SUBSTRUCTURE
     1 NAA     1 RESIDUE           4 C     NAA     2 ROOT
     2 NA1    28 RESIDUE           4 C     NA1     1
     3 AMI    59 RESIDUE           4 A     AMI     1
