MODEL 1
REMARK VINA RESULT:      -8.9      0.000      0.000
REMARK  Name = 3fy1
REMARK  21 active torsions:
REMARK  status: ('A' for Active; 'I' for Inactive)
REMARK    1  A    between atoms: C1_1  and  O4_71
REMARK    2  A    between atoms: C2_2  and  N2_9
REMARK    3  A    between atoms: C3_3  and  O3_10
REMARK    4  A    between atoms: C4_4  and  O4_11
REMARK    5  A    between atoms: C5_5  and  C6_6
REMARK    6  A    between atoms: C6_6  and  O6_13
REMARK    7  A    between atoms: C7_7  and  C8_8
REMARK    8  A    between atoms: O4_11  and  C1_28
REMARK    9  A    between atoms: C2_29  and  N2_36
REMARK   10  A    between atoms: C3_30  and  O3_37
REMARK   11  A    between atoms: C4_31  and  O4_38
REMARK   12  A    between atoms: C5_32  and  C6_33
REMARK   13  A    between atoms: C6_33  and  O6_40
REMARK   14  A    between atoms: C7_34  and  C8_35
REMARK   15  A    between atoms: O6_40  and  C9_41
REMARK   16  A    between atoms: C3_61  and  O3_70
REMARK   17  A    between atoms: C4_62  and  O4_71
REMARK   18  A    between atoms: C5_63  and  C6_64
REMARK   19  A    between atoms: C6_64  and  O6_72
REMARK   20  A    between atoms: C8_66  and  N7_69
REMARK   21  A    between atoms: C9_67  and  N7_69
REMARK                            x       y       z     vdW  Elec       q    Type
REMARK                         _______ _______ _______ _____ _____    ______ ____
ROOT
ATOM      1  C   UNL     1      -0.241  49.660  66.721  0.00  0.00    +0.273 C 
ATOM      2  O   UNL     1       0.815  49.012  66.002  0.00  0.00    -0.342 OA
ATOM      3  C   UNL     1       0.609  48.931  64.594  0.00  0.00    +0.178 C 
ATOM      4  C   UNL     1       0.581  50.405  64.062  0.00  0.00    +0.183 C 
ATOM      5  C   UNL     1      -0.639  51.202  64.735  0.00  0.00    +0.171 C 
ATOM      6  C   UNL     1      -0.448  51.137  66.273  0.00  0.00    +0.161 C 
ENDROOT
BRANCH   6   7
ATOM      7  N   UNL     1      -1.648  51.570  67.042  0.00  0.00    -0.305 N 
ATOM      8  H   UNL     1      -2.543  51.148  66.839  0.00  0.00    +0.150 HD
ATOM      9  C   UNL     1      -1.570  52.490  67.981  0.00  0.00    +0.209 C 
ATOM     10  O   UNL     1      -0.509  53.053  68.262  0.00  0.00    -0.278 OA
ATOM     11  C   UNL     1      -2.863  52.830  68.710  0.00  0.00    +0.111 C 
ENDBRANCH   6   7
BRANCH   5  12
ATOM     12  O   UNL     1      -1.889  50.620  64.368  0.00  0.00    -0.388 OA
ATOM     13  H   UNL     1      -1.909  49.701  64.646  0.00  0.00    +0.211 HD
ENDBRANCH   5  12
BRANCH   4  14
ATOM     14  O   UNL     1       0.527  50.370  62.649  0.00  0.00    -0.342 OA
BRANCH  14  15
ATOM     15  C   UNL     1       1.418  51.240  61.985  0.00  0.00    +0.274 C 
ATOM     16  O   UNL     1       0.539  52.329  61.586  0.00  0.00    -0.342 OA
ATOM     17  C   UNL     1       1.219  53.333  60.760  0.00  0.00    +0.178 C 
ATOM     18  C   UNL     1       1.525  52.570  59.399  0.00  0.00    +0.176 C 
ATOM     19  C   UNL     1       2.546  51.440  59.670  0.00  0.00    +0.171 C 
ATOM     20  C   UNL     1       1.988  50.505  60.739  0.00  0.00    +0.161 C 
BRANCH  20  21
ATOM     21  N   UNL     1       2.996  49.560  61.205  0.00  0.00    -0.305 N 
ATOM     22  H   UNL     1       3.520  49.827  62.026  0.00  0.00    +0.150 HD
ATOM     23  C   UNL     1       3.296  48.397  60.669  0.00  0.00    +0.209 C 
ATOM     24  O   UNL     1       2.755  47.931  59.691  0.00  0.00    -0.278 OA
ATOM     25  C   UNL     1       4.405  47.664  61.420  0.00  0.00    +0.111 C 
ENDBRANCH  20  21
BRANCH  19  26
ATOM     26  O   UNL     1       3.770  51.982  60.134  0.00  0.00    -0.388 OA
ATOM     27  H   UNL     1       3.830  51.871  61.086  0.00  0.00    +0.211 HD
ENDBRANCH  19  26
BRANCH  18  28
ATOM     28  O   UNL     1       2.080  53.416  58.429  0.00  0.00    -0.388 OA
ATOM     29  H   UNL     1       2.642  52.906  57.841  0.00  0.00    +0.211 HD
ENDBRANCH  18  28
BRANCH  17  30
ATOM     30  C   UNL     1       0.269  54.567  60.589  0.00  0.00    +0.194 C 
BRANCH  30  31
ATOM     31  O   UNL     1       0.781  55.558  59.661  0.00  0.00    -0.382 OA
ATOM     32  C   UNL     1       1.527  56.553  60.183  0.00  0.00    +0.195 C 
ENDBRANCH  30  31
ENDBRANCH  17  30
ENDBRANCH  14  15
ENDBRANCH   4  14
BRANCH   3  33
ATOM     33  C   UNL     1       1.760  48.109  64.027  0.00  0.00    +0.191 C 
BRANCH  33  34
ATOM     34  O   UNL     1       1.642  46.759  64.556  0.00  0.00    -0.394 OA
ATOM     35  H   UNL     1       1.720  46.782  65.513  0.00  0.00    +0.210 HD
ENDBRANCH  33  34
ENDBRANCH   3  33
BRANCH   1  36
ATOM     36  O   UNL     1       0.100  49.688  68.089  0.00  0.00    -0.344 OA
BRANCH  36  37
ATOM     37  C   UNL     1       0.073  48.461  68.797  0.00  0.00    +0.160 C 
ATOM     38  C   UNL     1       0.159  48.821  70.278  0.00  0.00    +0.078 C 
ATOM     39  C   UNL     1       0.524  47.510  70.982  0.00  0.00    +0.164 C 
ATOM     40  O   UNL     1       1.514  47.680  72.026  0.00  0.00    -0.311 OA
ATOM     41  C   UNL     1       2.637  46.970  71.668  0.00  0.00    +0.229 C 
ATOM     42  N   UNL     1       3.773  47.023  72.405  0.00  0.00    -0.302 N 
ATOM     43  C   UNL     1       3.739  47.548  73.794  0.00  0.00    +0.133 C 
ATOM     44  C   UNL     1       5.006  46.294  72.024  0.00  0.00    +0.133 C 
ATOM     45  N   UNL     1       2.539  46.408  70.458  0.00  0.00    -0.240 NA
ATOM     46  C   UNL     1       1.249  46.674  69.906  0.00  0.00    +0.171 C 
ATOM     47  C   UNL     1       1.352  47.608  68.701  0.00  0.00    +0.171 C 
BRANCH  47  48
ATOM     48  O   UNL     1       1.351  46.785  67.534  0.00  0.00    -0.388 OA
ATOM     49  H   UNL     1       2.076  47.042  66.961  0.00  0.00    +0.211 HD
ENDBRANCH  47  48
BRANCH  38  50
ATOM     50  C   UNL     1      -1.162  49.463  70.858  0.00  0.00    +0.165 C 
BRANCH  50  51
ATOM     51  O   UNL     1      -2.276  49.199  69.966  0.00  0.00    -0.396 OA
ATOM     52  H   UNL     1      -2.067  49.525  69.087  0.00  0.00    +0.210 HD
ENDBRANCH  50  51
ENDBRANCH  38  50
ENDBRANCH  36  37
ENDBRANCH   1  36
TORSDOF 16
ENDMDL
MODEL 2
REMARK VINA RESULT:      -8.3      2.873      9.267
REMARK  Name = 3fy1
REMARK  21 active torsions:
REMARK  status: ('A' for Active; 'I' for Inactive)
REMARK    1  A    between atoms: C1_1  and  O4_71
REMARK    2  A    between atoms: C2_2  and  N2_9
REMARK    3  A    between atoms: C3_3  and  O3_10
REMARK    4  A    between atoms: C4_4  and  O4_11
REMARK    5  A    between atoms: C5_5  and  C6_6
REMARK    6  A    between atoms: C6_6  and  O6_13
REMARK    7  A    between atoms: C7_7  and  C8_8
REMARK    8  A    between atoms: O4_11  and  C1_28
REMARK    9  A    between atoms: C2_29  and  N2_36
REMARK   10  A    between atoms: C3_30  and  O3_37
REMARK   11  A    between atoms: C4_31  and  O4_38
REMARK   12  A    between atoms: C5_32  and  C6_33
REMARK   13  A    between atoms: C6_33  and  O6_40
REMARK   14  A    between atoms: C7_34  and  C8_35
REMARK   15  A    between atoms: O6_40  and  C9_41
REMARK   16  A    between atoms: C3_61  and  O3_70
REMARK   17  A    between atoms: C4_62  and  O4_71
REMARK   18  A    between atoms: C5_63  and  C6_64
REMARK   19  A    between atoms: C6_64  and  O6_72
REMARK   20  A    between atoms: C8_66  and  N7_69
REMARK   21  A    between atoms: C9_67  and  N7_69
REMARK                            x       y       z     vdW  Elec       q    Type
REMARK                         _______ _______ _______ _____ _____    ______ ____
ROOT
ATOM      1  C   UNL     1       1.656  49.975  63.285  0.00  0.00    +0.273 C 
ATOM      2  O   UNL     1       1.640  48.972  64.308  0.00  0.00    -0.342 OA
ATOM      3  C   UNL     1       1.131  49.416  65.564  0.00  0.00    +0.178 C 
ATOM      4  C   UNL     1      -0.370  49.798  65.326  0.00  0.00    +0.183 C 
ATOM      5  C   UNL     1      -0.465  50.993  64.259  0.00  0.00    +0.171 C 
ATOM      6  C   UNL     1       0.231  50.515  62.958  0.00  0.00    +0.161 C 
ENDROOT
BRANCH   6   7
ATOM      7  N   UNL     1       0.489  51.610  61.982  0.00  0.00    -0.305 N 
ATOM      8  H   UNL     1       1.171  52.320  62.206  0.00  0.00    +0.150 HD
ATOM      9  C   UNL     1      -0.152  51.674  60.834  0.00  0.00    +0.209 C 
ATOM     10  O   UNL     1      -1.008  50.847  60.512  0.00  0.00    -0.278 OA
ATOM     11  C   UNL     1       0.215  52.830  59.913  0.00  0.00    +0.111 C 
ENDBRANCH   6   7
BRANCH   5  12
ATOM     12  O   UNL     1       0.173  52.169  64.757  0.00  0.00    -0.388 OA
ATOM     13  H   UNL     1      -0.303  52.945  64.452  0.00  0.00    +0.211 HD
ENDBRANCH   5  12
BRANCH   4  14
ATOM     14  O   UNL     1      -0.958  50.103  66.576  0.00  0.00    -0.342 OA
BRANCH  14  15
ATOM     15  C   UNL     1      -1.959  49.209  67.012  0.00  0.00    +0.274 C 
ATOM     16  O   UNL     1      -3.122  49.671  66.270  0.00  0.00    -0.342 OA
ATOM     17  C   UNL     1      -4.351  48.959  66.641  0.00  0.00    +0.178 C 
ATOM     18  C   UNL     1      -4.635  49.431  68.132  0.00  0.00    +0.176 C 
ATOM     19  C   UNL     1      -3.511  48.904  69.053  0.00  0.00    +0.171 C 
ATOM     20  C   UNL     1      -2.164  49.405  68.541  0.00  0.00    +0.161 C 
BRANCH  20  21
ATOM     21  N   UNL     1      -1.052  48.754  69.223  0.00  0.00    -0.305 N 
ATOM     22  H   UNL     1      -0.580  48.018  68.717  0.00  0.00    +0.150 HD
ATOM     23  C   UNL     1      -0.600  49.023  70.428  0.00  0.00    +0.209 C 
ATOM     24  O   UNL     1      -1.049  49.879  71.156  0.00  0.00    -0.278 OA
ATOM     25  C   UNL     1       0.584  48.145  70.829  0.00  0.00    +0.111 C 
ENDBRANCH  20  21
BRANCH  19  26
ATOM     26  O   UNL     1      -3.498  47.487  69.055  0.00  0.00    -0.388 OA
ATOM     27  H   UNL     1      -2.620  47.175  69.287  0.00  0.00    +0.211 HD
ENDBRANCH  19  26
BRANCH  18  28
ATOM     28  O   UNL     1      -5.851  48.935  68.624  0.00  0.00    -0.388 OA
ATOM     29  H   UNL     1      -5.693  48.440  69.431  0.00  0.00    +0.211 HD
ENDBRANCH  18  28
BRANCH  17  30
ATOM     30  C   UNL     1      -5.482  49.353  65.631  0.00  0.00    +0.194 C 
BRANCH  30  31
ATOM     31  O   UNL     1      -6.374  50.377  66.141  0.00  0.00    -0.382 OA
ATOM     32  C   UNL     1      -7.688  50.228  65.877  0.00  0.00    +0.195 C 
ENDBRANCH  30  31
ENDBRANCH  17  30
ENDBRANCH  14  15
ENDBRANCH   4  14
BRANCH   3  33
ATOM     33  C   UNL     1       1.311  48.263  66.543  0.00  0.00    +0.191 C 
BRANCH  33  34
ATOM     34  O   UNL     1       1.625  47.072  65.770  0.00  0.00    -0.394 OA
ATOM     35  H   UNL     1       2.313  46.573  66.217  0.00  0.00    +0.210 HD
ENDBRANCH  33  34
ENDBRANCH   3  33
BRANCH   1  36
ATOM     36  O   UNL     1       2.160  49.399  62.101  0.00  0.00    -0.344 OA
BRANCH  36  37
ATOM     37  C   UNL     1       3.438  48.790  62.161  0.00  0.00    +0.160 C 
ATOM     38  C   UNL     1       4.089  49.030  60.801  0.00  0.00    +0.078 C 
ATOM     39  C   UNL     1       5.265  48.050  60.748  0.00  0.00    +0.164 C 
ATOM     40  O   UNL     1       5.412  47.404  59.460  0.00  0.00    -0.311 OA
ATOM     41  C   UNL     1       5.220  46.052  59.637  0.00  0.00    +0.229 C 
ATOM     42  N   UNL     1       5.195  45.197  58.585  0.00  0.00    -0.302 N 
ATOM     43  C   UNL     1       5.724  45.621  57.264  0.00  0.00    +0.133 C 
ATOM     44  C   UNL     1       4.957  43.743  58.746  0.00  0.00    +0.133 C 
ATOM     45  N   UNL     1       4.879  45.731  60.890  0.00  0.00    -0.240 NA
ATOM     46  C   UNL     1       4.867  46.905  61.702  0.00  0.00    +0.171 C 
ATOM     47  C   UNL     1       3.444  47.251  62.142  0.00  0.00    +0.171 C 
BRANCH  47  48
ATOM     48  O   UNL     1       3.268  46.706  63.450  0.00  0.00    -0.388 OA
ATOM     49  H   UNL     1       3.438  45.762  63.429  0.00  0.00    +0.211 HD
ENDBRANCH  47  48
BRANCH  38  50
ATOM     50  C   UNL     1       4.543  50.523  60.563  0.00  0.00    +0.165 C 
BRANCH  50  51
ATOM     51  O   UNL     1       3.389  51.403  60.584  0.00  0.00    -0.396 OA
ATOM     52  H   UNL     1       2.903  51.275  61.403  0.00  0.00    +0.210 HD
ENDBRANCH  50  51
ENDBRANCH  38  50
ENDBRANCH  36  37
ENDBRANCH   1  36
TORSDOF 16
ENDMDL
MODEL 3
REMARK VINA RESULT:      -7.8      2.960      9.225
REMARK  Name = 3fy1
REMARK  21 active torsions:
REMARK  status: ('A' for Active; 'I' for Inactive)
REMARK    1  A    between atoms: C1_1  and  O4_71
REMARK    2  A    between atoms: C2_2  and  N2_9
REMARK    3  A    between atoms: C3_3  and  O3_10
REMARK    4  A    between atoms: C4_4  and  O4_11
REMARK    5  A    between atoms: C5_5  and  C6_6
REMARK    6  A    between atoms: C6_6  and  O6_13
REMARK    7  A    between atoms: C7_7  and  C8_8
REMARK    8  A    between atoms: O4_11  and  C1_28
REMARK    9  A    between atoms: C2_29  and  N2_36
REMARK   10  A    between atoms: C3_30  and  O3_37
REMARK   11  A    between atoms: C4_31  and  O4_38
REMARK   12  A    between atoms: C5_32  and  C6_33
REMARK   13  A    between atoms: C6_33  and  O6_40
REMARK   14  A    between atoms: C7_34  and  C8_35
REMARK   15  A    between atoms: O6_40  and  C9_41
REMARK   16  A    between atoms: C3_61  and  O3_70
REMARK   17  A    between atoms: C4_62  and  O4_71
REMARK   18  A    between atoms: C5_63  and  C6_64
REMARK   19  A    between atoms: C6_64  and  O6_72
REMARK   20  A    between atoms: C8_66  and  N7_69
REMARK   21  A    between atoms: C9_67  and  N7_69
REMARK                            x       y       z     vdW  Elec       q    Type
REMARK                         _______ _______ _______ _____ _____    ______ ____
ROOT
ATOM      1  C   UNL     1       1.260  49.631  64.087  0.00  0.00    +0.273 C 
ATOM      2  O   UNL     1       1.450  48.761  65.210  0.00  0.00    -0.342 OA
ATOM      3  C   UNL     1       1.115  49.339  66.469  0.00  0.00    +0.178 C 
ATOM      4  C   UNL     1      -0.422  49.642  66.426  0.00  0.00    +0.183 C 
ATOM      5  C   UNL     1      -0.737  50.693  65.255  0.00  0.00    +0.171 C 
ATOM      6  C   UNL     1      -0.222  50.082  63.926  0.00  0.00    +0.161 C 
ENDROOT
BRANCH   6   7
ATOM      7  N   UNL     1      -0.170  51.057  62.801  0.00  0.00    -0.305 N 
ATOM      8  H   UNL     1       0.601  51.707  62.748  0.00  0.00    +0.150 HD
ATOM      9  C   UNL     1      -1.105  51.090  61.875  0.00  0.00    +0.209 C 
ATOM     10  O   UNL     1      -2.079  50.334  61.896  0.00  0.00    -0.278 OA
ATOM     11  C   UNL     1      -0.928  52.119  60.766  0.00  0.00    +0.111 C 
ENDBRANCH   6   7
BRANCH   5  12
ATOM     12  O   UNL     1      -0.090  51.941  65.508  0.00  0.00    -0.388 OA
ATOM     13  H   UNL     1       0.613  51.814  66.150  0.00  0.00    +0.211 HD
ENDBRANCH   5  12
BRANCH   4  14
ATOM     14  O   UNL     1      -0.828  50.079  67.709  0.00  0.00    -0.342 OA
BRANCH  14  15
ATOM     15  C   UNL     1      -1.648  49.182  68.426  0.00  0.00    +0.274 C 
ATOM     16  O   UNL     1      -0.674  48.443  69.214  0.00  0.00    -0.342 OA
ATOM     17  C   UNL     1      -1.278  47.347  69.980  0.00  0.00    +0.178 C 
ATOM     18  C   UNL     1      -1.740  46.308  68.868  0.00  0.00    +0.176 C 
ATOM     19  C   UNL     1      -2.866  46.942  68.019  0.00  0.00    +0.171 C 
ATOM     20  C   UNL     1      -2.362  48.247  67.410  0.00  0.00    +0.161 C 
BRANCH  20  21
ATOM     21  N   UNL     1      -3.445  49.006  66.795  0.00  0.00    -0.305 N 
ATOM     22  H   UNL     1      -3.918  49.676  67.384  0.00  0.00    +0.150 HD
ATOM     23  C   UNL     1      -3.870  48.909  65.555  0.00  0.00    +0.209 C 
ATOM     24  O   UNL     1      -3.404  48.162  64.724  0.00  0.00    -0.278 OA
ATOM     25  C   UNL     1      -5.025  49.860  65.246  0.00  0.00    +0.111 C 
ENDBRANCH  20  21
BRANCH  19  26
ATOM     26  O   UNL     1      -3.995  47.223  68.828  0.00  0.00    -0.388 OA
ATOM     27  H   UNL     1      -4.316  48.107  68.634  0.00  0.00    +0.211 HD
ENDBRANCH  19  26
BRANCH  18  28
ATOM     28  O   UNL     1      -2.245  45.124  69.425  0.00  0.00    -0.388 OA
ATOM     29  H   UNL     1      -2.411  45.255  70.361  0.00  0.00    +0.211 HD
ENDBRANCH  18  28
BRANCH  17  30
ATOM     30  C   UNL     1      -0.205  46.775  70.968  0.00  0.00    +0.194 C 
BRANCH  30  31
ATOM     31  O   UNL     1       0.943  47.646  71.133  0.00  0.00    -0.382 OA
ATOM     32  C   UNL     1       2.156  47.107  70.894  0.00  0.00    +0.195 C 
ENDBRANCH  30  31
ENDBRANCH  17  30
ENDBRANCH  14  15
ENDBRANCH   4  14
BRANCH   3  33
ATOM     33  C   UNL     1       1.499  48.321  67.536  0.00  0.00    +0.191 C 
BRANCH  33  34
ATOM     34  O   UNL     1       1.156  47.001  67.031  0.00  0.00    -0.394 OA
ATOM     35  H   UNL     1       1.467  46.332  67.645  0.00  0.00    +0.210 HD
ENDBRANCH  33  34
ENDBRANCH   3  33
BRANCH   1  36
ATOM     36  O   UNL     1       1.608  48.930  62.914  0.00  0.00    -0.344 OA
BRANCH  36  37
ATOM     37  C   UNL     1       2.922  48.408  62.827  0.00  0.00    +0.160 C 
ATOM     38  C   UNL     1       3.443  48.793  61.444  0.00  0.00    +0.078 C 
ATOM     39  C   UNL     1       4.671  47.903  61.224  0.00  0.00    +0.164 C 
ATOM     40  O   UNL     1       4.752  47.366  59.881  0.00  0.00    -0.311 OA
ATOM     41  C   UNL     1       4.660  45.995  59.964  0.00  0.00    +0.229 C 
ATOM     42  N   UNL     1       4.604  45.221  58.853  0.00  0.00    -0.302 N 
ATOM     43  C   UNL     1       4.996  45.778  57.533  0.00  0.00    +0.133 C 
ATOM     44  C   UNL     1       4.472  43.746  58.915  0.00  0.00    +0.133 C 
ATOM     45  N   UNL     1       4.444  45.559  61.210  0.00  0.00    -0.240 NA
ATOM     46  C   UNL     1       4.425  46.666  62.112  0.00  0.00    +0.171 C 
ATOM     47  C   UNL     1       3.024  46.879  62.685  0.00  0.00    +0.171 C 
BRANCH  47  48
ATOM     48  O   UNL     1       2.989  46.227  63.956  0.00  0.00    -0.388 OA
ATOM     49  H   UNL     1       3.849  45.843  64.141  0.00  0.00    +0.211 HD
ENDBRANCH  47  48
BRANCH  38  50
ATOM     50  C   UNL     1       3.782  50.327  61.292  0.00  0.00    +0.165 C 
BRANCH  50  51
ATOM     51  O   UNL     1       2.556  51.101  61.213  0.00  0.00    -0.396 OA
ATOM     52  H   UNL     1       2.305  51.394  62.092  0.00  0.00    +0.210 HD
ENDBRANCH  50  51
ENDBRANCH  38  50
ENDBRANCH  36  37
ENDBRANCH   1  36
TORSDOF 16
ENDMDL
MODEL 4
REMARK VINA RESULT:      -7.8      2.984      9.550
REMARK  Name = 3fy1
REMARK  21 active torsions:
REMARK  status: ('A' for Active; 'I' for Inactive)
REMARK    1  A    between atoms: C1_1  and  O4_71
REMARK    2  A    between atoms: C2_2  and  N2_9
REMARK    3  A    between atoms: C3_3  and  O3_10
REMARK    4  A    between atoms: C4_4  and  O4_11
REMARK    5  A    between atoms: C5_5  and  C6_6
REMARK    6  A    between atoms: C6_6  and  O6_13
REMARK    7  A    between atoms: C7_7  and  C8_8
REMARK    8  A    between atoms: O4_11  and  C1_28
REMARK    9  A    between atoms: C2_29  and  N2_36
REMARK   10  A    between atoms: C3_30  and  O3_37
REMARK   11  A    between atoms: C4_31  and  O4_38
REMARK   12  A    between atoms: C5_32  and  C6_33
REMARK   13  A    between atoms: C6_33  and  O6_40
REMARK   14  A    between atoms: C7_34  and  C8_35
REMARK   15  A    between atoms: O6_40  and  C9_41
REMARK   16  A    between atoms: C3_61  and  O3_70
REMARK   17  A    between atoms: C4_62  and  O4_71
REMARK   18  A    between atoms: C5_63  and  C6_64
REMARK   19  A    between atoms: C6_64  and  O6_72
REMARK   20  A    between atoms: C8_66  and  N7_69
REMARK   21  A    between atoms: C9_67  and  N7_69
REMARK                            x       y       z     vdW  Elec       q    Type
REMARK                         _______ _______ _______ _____ _____    ______ ____
ROOT
ATOM      1  C   UNL     1       0.542  50.482  63.497  0.00  0.00    +0.273 C 
ATOM      2  O   UNL     1       1.194  49.544  64.362  0.00  0.00    -0.342 OA
ATOM      3  C   UNL     1       0.736  49.567  65.712  0.00  0.00    +0.178 C 
ATOM      4  C   UNL     1      -0.769  49.133  65.679  0.00  0.00    +0.183 C 
ATOM      5  C   UNL     1      -1.619  50.181  64.809  0.00  0.00    +0.171 C 
ATOM      6  C   UNL     1      -0.992  50.229  63.392  0.00  0.00    +0.161 C 
ENDROOT
BRANCH   6   7
ATOM      7  N   UNL     1      -1.477  51.368  62.563  0.00  0.00    -0.305 N 
ATOM      8  H   UNL     1      -1.247  52.312  62.839  0.00  0.00    +0.150 HD
ATOM      9  C   UNL     1      -2.199  51.173  61.480  0.00  0.00    +0.209 C 
ATOM     10  O   UNL     1      -2.526  50.046  61.102  0.00  0.00    -0.278 OA
ATOM     11  C   UNL     1      -2.617  52.417  60.707  0.00  0.00    +0.111 C 
ENDBRANCH   6   7
BRANCH   5  12
ATOM     12  O   UNL     1      -1.589  51.477  65.407  0.00  0.00    -0.388 OA
ATOM     13  H   UNL     1      -0.856  51.528  66.025  0.00  0.00    +0.211 HD
ENDBRANCH   5  12
BRANCH   4  14
ATOM     14  O   UNL     1      -1.225  48.996  67.011  0.00  0.00    -0.342 OA
BRANCH  14  15
ATOM     15  C   UNL     1      -1.726  47.723  67.356  0.00  0.00    +0.274 C 
ATOM     16  O   UNL     1      -3.120  47.826  66.953  0.00  0.00    -0.342 OA
ATOM     17  C   UNL     1      -3.905  46.641  67.318  0.00  0.00    +0.178 C 
ATOM     18  C   UNL     1      -3.960  46.690  68.907  0.00  0.00    +0.176 C 
ATOM     19  C   UNL     1      -2.535  46.480  69.470  0.00  0.00    +0.171 C 
ATOM     20  C   UNL     1      -1.606  47.546  68.896  0.00  0.00    +0.161 C 
BRANCH  20  21
ATOM     21  N   UNL     1      -0.209  47.263  69.202  0.00  0.00    -0.305 N 
ATOM     22  H   UNL     1       0.210  46.482  68.718  0.00  0.00    +0.150 HD
ATOM     23  C   UNL     1       0.563  47.917  70.041  0.00  0.00    +0.209 C 
ATOM     24  O   UNL     1       0.215  48.879  70.689  0.00  0.00    -0.278 OA
ATOM     25  C   UNL     1       1.978  47.348  70.115  0.00  0.00    +0.111 C 
ENDBRANCH  20  21
BRANCH  19  26
ATOM     26  O   UNL     1      -2.043  45.203  69.105  0.00  0.00    -0.388 OA
ATOM     27  H   UNL     1      -2.716  44.729  68.611  0.00  0.00    +0.211 HD
ENDBRANCH  19  26
BRANCH  18  28
ATOM     28  O   UNL     1      -4.778  45.683  69.441  0.00  0.00    -0.388 OA
ATOM     29  H   UNL     1      -4.369  44.827  69.294  0.00  0.00    +0.211 HD
ENDBRANCH  18  28
BRANCH  17  30
ATOM     30  C   UNL     1      -5.312  46.742  66.637  0.00  0.00    +0.194 C 
BRANCH  30  31
ATOM     31  O   UNL     1      -5.734  48.109  66.396  0.00  0.00    -0.382 OA
ATOM     32  C   UNL     1      -6.712  48.594  67.188  0.00  0.00    +0.195 C 
ENDBRANCH  30  31
ENDBRANCH  17  30
ENDBRANCH  14  15
ENDBRANCH   4  14
BRANCH   3  33
ATOM     33  C   UNL     1       1.623  48.605  66.493  0.00  0.00    +0.191 C 
BRANCH  33  34
ATOM     34  O   UNL     1       1.353  47.261  66.006  0.00  0.00    -0.394 OA
ATOM     35  H   UNL     1       0.404  47.120  65.965  0.00  0.00    +0.210 HD
ENDBRANCH  33  34
ENDBRANCH   3  33
BRANCH   1  36
ATOM     36  O   UNL     1       1.073  50.340  62.198  0.00  0.00    -0.344 OA
BRANCH  36  37
ATOM     37  C   UNL     1       2.478  50.448  62.050  0.00  0.00    +0.160 C 
ATOM     38  C   UNL     1       2.717  50.979  60.638  0.00  0.00    +0.078 C 
ATOM     39  C   UNL     1       4.202  50.715  60.364  0.00  0.00    +0.164 C 
ATOM     40  O   UNL     1       4.456  50.227  59.024  0.00  0.00    -0.311 OA
ATOM     41  C   UNL     1       4.983  48.960  59.126  0.00  0.00    +0.229 C 
ATOM     42  N   UNL     1       5.228  48.205  58.028  0.00  0.00    -0.302 N 
ATOM     43  C   UNL     1       5.279  48.835  56.683  0.00  0.00    +0.133 C 
ATOM     44  C   UNL     1       5.765  46.826  58.112  0.00  0.00    +0.133 C 
ATOM     45  N   UNL     1       5.034  48.512  60.386  0.00  0.00    -0.240 NA
ATOM     46  C   UNL     1       4.565  49.525  61.276  0.00  0.00    +0.171 C 
ATOM     47  C   UNL     1       3.239  49.117  61.918  0.00  0.00    +0.171 C 
BRANCH  47  48
ATOM     48  O   UNL     1       3.549  48.558  63.196  0.00  0.00    -0.388 OA
ATOM     49  H   UNL     1       4.497  48.598  63.341  0.00  0.00    +0.211 HD
ENDBRANCH  47  48
BRANCH  38  50
ATOM     50  C   UNL     1       2.336  52.500  60.453  0.00  0.00    +0.165 C 
BRANCH  50  51
ATOM     51  O   UNL     1       0.906  52.679  60.633  0.00  0.00    -0.396 OA
ATOM     52  H   UNL     1       0.534  51.893  61.041  0.00  0.00    +0.210 HD
ENDBRANCH  50  51
ENDBRANCH  38  50
ENDBRANCH  36  37
ENDBRANCH   1  36
TORSDOF 16
ENDMDL
MODEL 5
REMARK VINA RESULT:      -7.8      3.739      9.958
REMARK  Name = 3fy1
REMARK  21 active torsions:
REMARK  status: ('A' for Active; 'I' for Inactive)
REMARK    1  A    between atoms: C1_1  and  O4_71
REMARK    2  A    between atoms: C2_2  and  N2_9
REMARK    3  A    between atoms: C3_3  and  O3_10
REMARK    4  A    between atoms: C4_4  and  O4_11
REMARK    5  A    between atoms: C5_5  and  C6_6
REMARK    6  A    between atoms: C6_6  and  O6_13
REMARK    7  A    between atoms: C7_7  and  C8_8
REMARK    8  A    between atoms: O4_11  and  C1_28
REMARK    9  A    between atoms: C2_29  and  N2_36
REMARK   10  A    between atoms: C3_30  and  O3_37
REMARK   11  A    between atoms: C4_31  and  O4_38
REMARK   12  A    between atoms: C5_32  and  C6_33
REMARK   13  A    between atoms: C6_33  and  O6_40
REMARK   14  A    between atoms: C7_34  and  C8_35
REMARK   15  A    between atoms: O6_40  and  C9_41
REMARK   16  A    between atoms: C3_61  and  O3_70
REMARK   17  A    between atoms: C4_62  and  O4_71
REMARK   18  A    between atoms: C5_63  and  C6_64
REMARK   19  A    between atoms: C6_64  and  O6_72
REMARK   20  A    between atoms: C8_66  and  N7_69
REMARK   21  A    between atoms: C9_67  and  N7_69
REMARK                            x       y       z     vdW  Elec       q    Type
REMARK                         _______ _______ _______ _____ _____    ______ ____
ROOT
ATOM      1  C   UNL     1      -0.216  49.425  68.452  0.00  0.00    +0.273 C 
ATOM      2  O   UNL     1       0.180  48.068  68.221  0.00  0.00    -0.342 OA
ATOM      3  C   UNL     1      -0.105  47.177  69.297  0.00  0.00    +0.178 C 
ATOM      4  C   UNL     1      -1.665  47.141  69.443  0.00  0.00    +0.183 C 
ATOM      5  C   UNL     1      -2.212  48.606  69.803  0.00  0.00    +0.171 C 
ATOM      6  C   UNL     1      -1.751  49.568  68.677  0.00  0.00    +0.161 C 
ENDROOT
BRANCH   6   7
ATOM      7  N   UNL     1      -1.922  51.008  69.015  0.00  0.00    -0.305 N 
ATOM      8  H   UNL     1      -1.296  51.436  69.684  0.00  0.00    +0.150 HD
ATOM      9  C   UNL     1      -2.869  51.737  68.464  0.00  0.00    +0.209 C 
ATOM     10  O   UNL     1      -3.674  51.268  67.656  0.00  0.00    -0.278 OA
ATOM     11  C   UNL     1      -2.927  53.203  68.877  0.00  0.00    +0.111 C 
ENDBRANCH   6   7
BRANCH   5  12
ATOM     12  O   UNL     1      -1.702  49.041  71.064  0.00  0.00    -0.388 OA
ATOM     13  H   UNL     1      -0.935  48.513  71.299  0.00  0.00    +0.211 HD
ENDBRANCH   5  12
BRANCH   4  14
ATOM     14  O   UNL     1      -2.002  46.155  70.400  0.00  0.00    -0.342 OA
BRANCH  14  15
ATOM     15  C   UNL     1      -2.949  45.197  69.980  0.00  0.00    +0.274 C 
ATOM     16  O   UNL     1      -3.707  45.935  68.982  0.00  0.00    -0.342 OA
ATOM     17  C   UNL     1      -4.850  45.177  68.463  0.00  0.00    +0.178 C 
ATOM     18  C   UNL     1      -5.843  45.079  69.702  0.00  0.00    +0.176 C 
ATOM     19  C   UNL     1      -5.190  44.214  70.805  0.00  0.00    +0.171 C 
ATOM     20  C   UNL     1      -3.846  44.825  71.194  0.00  0.00    +0.161 C 
BRANCH  20  21
ATOM     21  N   UNL     1      -3.079  43.934  72.056  0.00  0.00    -0.305 N 
ATOM     22  H   UNL     1      -2.240  43.536  71.660  0.00  0.00    +0.150 HD
ATOM     23  C   UNL     1      -3.365  43.593  73.293  0.00  0.00    +0.209 C 
ATOM     24  O   UNL     1      -4.328  43.991  73.910  0.00  0.00    -0.278 OA
ATOM     25  C   UNL     1      -2.339  42.639  73.900  0.00  0.00    +0.111 C 
ENDBRANCH  20  21
BRANCH  19  26
ATOM     26  O   UNL     1      -4.970  42.896  70.335  0.00  0.00    -0.388 OA
ATOM     27  H   UNL     1      -4.318  42.462  70.890  0.00  0.00    +0.211 HD
ENDBRANCH  19  26
BRANCH  18  28
ATOM     28  O   UNL     1      -7.062  44.476  69.359  0.00  0.00    -0.388 OA
ATOM     29  H   UNL     1      -7.356  43.915  70.081  0.00  0.00    +0.211 HD
ENDBRANCH  18  28
BRANCH  17  30
ATOM     30  C   UNL     1      -5.450  45.950  67.238  0.00  0.00    +0.194 C 
BRANCH  30  31
ATOM     31  O   UNL     1      -4.498  46.840  66.602  0.00  0.00    -0.382 OA
ATOM     32  C   UNL     1      -4.884  48.121  66.429  0.00  0.00    +0.195 C 
ENDBRANCH  30  31
ENDBRANCH  17  30
ENDBRANCH  14  15
ENDBRANCH   4  14
BRANCH   3  33
ATOM     33  C   UNL     1       0.495  45.828  68.922  0.00  0.00    +0.191 C 
BRANCH  33  34
ATOM     34  O   UNL     1       1.844  46.066  68.431  0.00  0.00    -0.394 OA
ATOM     35  H   UNL     1       1.833  46.793  67.804  0.00  0.00    +0.210 HD
ENDBRANCH  33  34
ENDBRANCH   3  33
BRANCH   1  36
ATOM     36  O   UNL     1       0.105  50.187  67.309  0.00  0.00    -0.344 OA
BRANCH  36  37
ATOM     37  C   UNL     1      -0.232  49.644  66.044  0.00  0.00    +0.160 C 
ATOM     38  C   UNL     1       1.072  49.562  65.255  0.00  0.00    +0.078 C 
ATOM     39  C   UNL     1       0.640  49.359  63.799  0.00  0.00    +0.164 C 
ATOM     40  O   UNL     1       1.418  50.140  62.859  0.00  0.00    -0.311 OA
ATOM     41  C   UNL     1       0.569  51.029  62.239  0.00  0.00    +0.229 C 
ATOM     42  N   UNL     1       1.032  51.966  61.376  0.00  0.00    -0.302 N 
ATOM     43  C   UNL     1       2.395  51.842  60.799  0.00  0.00    +0.133 C 
ATOM     44  C   UNL     1       0.144  52.955  60.721  0.00  0.00    +0.133 C 
ATOM     45  N   UNL     1      -0.679  50.985  62.719  0.00  0.00    -0.240 NA
ATOM     46  C   UNL     1      -0.775  49.970  63.719  0.00  0.00    +0.171 C 
ATOM     47  C   UNL     1      -1.004  50.583  65.100  0.00  0.00    +0.171 C 
BRANCH  47  48
ATOM     48  O   UNL     1      -2.411  50.540  65.347  0.00  0.00    -0.388 OA
ATOM     49  H   UNL     1      -2.689  51.361  65.757  0.00  0.00    +0.211 HD
ENDBRANCH  47  48
BRANCH  38  50
ATOM     50  C   UNL     1       2.052  48.428  65.752  0.00  0.00    +0.165 C 
BRANCH  50  51
ATOM     51  O   UNL     1       1.390  47.138  65.688  0.00  0.00    -0.396 OA
ATOM     52  H   UNL     1       0.645  47.129  66.294  0.00  0.00    +0.210 HD
ENDBRANCH  50  51
ENDBRANCH  38  50
ENDBRANCH  36  37
ENDBRANCH   1  36
TORSDOF 16
ENDMDL
MODEL 6
REMARK VINA RESULT:      -7.7      3.026      9.128
REMARK  Name = 3fy1
REMARK  21 active torsions:
REMARK  status: ('A' for Active; 'I' for Inactive)
REMARK    1  A    between atoms: C1_1  and  O4_71
REMARK    2  A    between atoms: C2_2  and  N2_9
REMARK    3  A    between atoms: C3_3  and  O3_10
REMARK    4  A    between atoms: C4_4  and  O4_11
REMARK    5  A    between atoms: C5_5  and  C6_6
REMARK    6  A    between atoms: C6_6  and  O6_13
REMARK    7  A    between atoms: C7_7  and  C8_8
REMARK    8  A    between atoms: O4_11  and  C1_28
REMARK    9  A    between atoms: C2_29  and  N2_36
REMARK   10  A    between atoms: C3_30  and  O3_37
REMARK   11  A    between atoms: C4_31  and  O4_38
REMARK   12  A    between atoms: C5_32  and  C6_33
REMARK   13  A    between atoms: C6_33  and  O6_40
REMARK   14  A    between atoms: C7_34  and  C8_35
REMARK   15  A    between atoms: O6_40  and  C9_41
REMARK   16  A    between atoms: C3_61  and  O3_70
REMARK   17  A    between atoms: C4_62  and  O4_71
REMARK   18  A    between atoms: C5_63  and  C6_64
REMARK   19  A    between atoms: C6_64  and  O6_72
REMARK   20  A    between atoms: C8_66  and  N7_69
REMARK   21  A    between atoms: C9_67  and  N7_69
REMARK                            x       y       z     vdW  Elec       q    Type
REMARK                         _______ _______ _______ _____ _____    ______ ____
ROOT
ATOM      1  C   UNL     1      -1.136  50.599  64.163  0.00  0.00    +0.273 C 
ATOM      2  O   UNL     1      -0.444  50.312  65.384  0.00  0.00    -0.342 OA
ATOM      3  C   UNL     1      -1.159  50.666  66.566  0.00  0.00    +0.178 C 
ATOM      4  C   UNL     1      -2.447  49.774  66.592  0.00  0.00    +0.183 C 
ATOM      5  C   UNL     1      -3.353  50.090  65.305  0.00  0.00    +0.171 C 
ATOM      6  C   UNL     1      -2.485  49.830  64.046  0.00  0.00    +0.161 C 
ENDROOT
BRANCH   6   7
ATOM      7  N   UNL     1      -3.082  50.360  62.789  0.00  0.00    -0.305 N 
ATOM      8  H   UNL     1      -2.968  51.339  62.564  0.00  0.00    +0.150 HD
ATOM      9  C   UNL     1      -3.754  49.585  61.965  0.00  0.00    +0.209 C 
ATOM     10  O   UNL     1      -3.942  48.388  62.194  0.00  0.00    -0.278 OA
ATOM     11  C   UNL     1      -4.298  50.242  60.703  0.00  0.00    +0.111 C 
ENDBRANCH   6   7
BRANCH   5  12
ATOM     12  O   UNL     1      -3.804  51.444  65.322  0.00  0.00    -0.388 OA
ATOM     13  H   UNL     1      -4.732  51.477  65.080  0.00  0.00    +0.211 HD
ENDBRANCH   5  12
BRANCH   4  14
ATOM     14  O   UNL     1      -3.113  49.985  67.822  0.00  0.00    -0.342 OA
BRANCH  14  15
ATOM     15  C   UNL     1      -3.261  48.842  68.637  0.00  0.00    +0.274 C 
ATOM     16  O   UNL     1      -1.905  48.635  69.120  0.00  0.00    -0.342 OA
ATOM     17  C   UNL     1      -1.767  47.411  69.917  0.00  0.00    +0.178 C 
ATOM     18  C   UNL     1      -1.982  46.239  68.864  0.00  0.00    +0.176 C 
ATOM     19  C   UNL     1      -3.440  46.282  68.349  0.00  0.00    +0.171 C 
ATOM     20  C   UNL     1      -3.718  47.655  67.743  0.00  0.00    +0.161 C 
BRANCH  20  21
ATOM     21  N   UNL     1      -5.135  47.838  67.454  0.00  0.00    -0.305 N 
ATOM     22  H   UNL     1      -5.684  48.305  68.162  0.00  0.00    +0.150 HD
ATOM     23  C   UNL     1      -5.775  47.459  66.370  0.00  0.00    +0.209 C 
ATOM     24  O   UNL     1      -5.261  46.896  65.430  0.00  0.00    -0.278 OA
ATOM     25  C   UNL     1      -7.260  47.814  66.400  0.00  0.00    +0.111 C 
ENDBRANCH  20  21
BRANCH  19  26
ATOM     26  O   UNL     1      -4.347  46.063  69.414  0.00  0.00    -0.388 OA
ATOM     27  H   UNL     1      -3.857  45.882  70.220  0.00  0.00    +0.211 HD
ENDBRANCH  19  26
BRANCH  18  28
ATOM     28  O   UNL     1      -1.771  44.972  69.428  0.00  0.00    -0.388 OA
ATOM     29  H   UNL     1      -1.872  45.025  70.381  0.00  0.00    +0.211 HD
ENDBRANCH  18  28
BRANCH  17  30
ATOM     30  C   UNL     1      -0.349  47.403  70.584  0.00  0.00    +0.194 C 
BRANCH  30  31
ATOM     31  O   UNL     1       0.690  46.886  69.713  0.00  0.00    -0.382 OA
ATOM     32  C   UNL     1       1.965  47.152  70.062  0.00  0.00    +0.195 C 
ENDBRANCH  30  31
ENDBRANCH  17  30
ENDBRANCH  14  15
ENDBRANCH   4  14
BRANCH   3  33
ATOM     33  C   UNL     1      -0.223  50.407  67.740  0.00  0.00    +0.191 C 
BRANCH  33  34
ATOM     34  O   UNL     1       0.380  49.098  67.543  0.00  0.00    -0.394 OA
ATOM     35  H   UNL     1       0.214  48.549  68.313  0.00  0.00    +0.210 HD
ENDBRANCH  33  34
ENDBRANCH   3  33
BRANCH   1  36
ATOM     36  O   UNL     1      -0.329  50.184  63.083  0.00  0.00    -0.344 OA
BRANCH  36  37
ATOM     37  C   UNL     1       1.068  50.107  63.300  0.00  0.00    +0.160 C 
ATOM     38  C   UNL     1       1.724  50.335  61.941  0.00  0.00    +0.078 C 
ATOM     39  C   UNL     1       3.171  49.862  62.117  0.00  0.00    +0.164 C 
ATOM     40  O   UNL     1       3.666  49.108  60.984  0.00  0.00    -0.311 OA
ATOM     41  C   UNL     1       3.950  47.831  61.414  0.00  0.00    +0.229 C 
ATOM     42  N   UNL     1       4.336  46.862  60.548  0.00  0.00    -0.302 N 
ATOM     43  C   UNL     1       4.810  47.221  59.187  0.00  0.00    +0.133 C 
ATOM     44  C   UNL     1       4.615  45.472  60.981  0.00  0.00    +0.133 C 
ATOM     45  N   UNL     1       3.622  47.624  62.694  0.00  0.00    -0.240 NA
ATOM     46  C   UNL     1       3.112  48.831  63.262  0.00  0.00    +0.171 C 
ATOM     47  C   UNL     1       1.623  48.698  63.581  0.00  0.00    +0.171 C 
BRANCH  47  48
ATOM     48  O   UNL     1       1.521  48.357  64.964  0.00  0.00    -0.388 OA
ATOM     49  H   UNL     1       1.260  47.437  65.048  0.00  0.00    +0.211 HD
ENDBRANCH  47  48
BRANCH  38  50
ATOM     50  C   UNL     1       1.640  51.827  61.432  0.00  0.00    +0.165 C 
BRANCH  50  51
ATOM     51  O   UNL     1       0.792  52.606  62.315  0.00  0.00    -0.396 OA
ATOM     52  H   UNL     1       1.313  52.932  63.054  0.00  0.00    +0.210 HD
ENDBRANCH  50  51
ENDBRANCH  38  50
ENDBRANCH  36  37
ENDBRANCH   1  36
TORSDOF 16
ENDMDL
MODEL 7
REMARK VINA RESULT:      -7.7      3.171      9.134
REMARK  Name = 3fy1
REMARK  21 active torsions:
REMARK  status: ('A' for Active; 'I' for Inactive)
REMARK    1  A    between atoms: C1_1  and  O4_71
REMARK    2  A    between atoms: C2_2  and  N2_9
REMARK    3  A    between atoms: C3_3  and  O3_10
REMARK    4  A    between atoms: C4_4  and  O4_11
REMARK    5  A    between atoms: C5_5  and  C6_6
REMARK    6  A    between atoms: C6_6  and  O6_13
REMARK    7  A    between atoms: C7_7  and  C8_8
REMARK    8  A    between atoms: O4_11  and  C1_28
REMARK    9  A    between atoms: C2_29  and  N2_36
REMARK   10  A    between atoms: C3_30  and  O3_37
REMARK   11  A    between atoms: C4_31  and  O4_38
REMARK   12  A    between atoms: C5_32  and  C6_33
REMARK   13  A    between atoms: C6_33  and  O6_40
REMARK   14  A    between atoms: C7_34  and  C8_35
REMARK   15  A    between atoms: O6_40  and  C9_41
REMARK   16  A    between atoms: C3_61  and  O3_70
REMARK   17  A    between atoms: C4_62  and  O4_71
REMARK   18  A    between atoms: C5_63  and  C6_64
REMARK   19  A    between atoms: C6_64  and  O6_72
REMARK   20  A    between atoms: C8_66  and  N7_69
REMARK   21  A    between atoms: C9_67  and  N7_69
REMARK                            x       y       z     vdW  Elec       q    Type
REMARK                         _______ _______ _______ _____ _____    ______ ____
ROOT
ATOM      1  C   UNL     1      -0.577  51.038  63.239  0.00  0.00    +0.273 C 
ATOM      2  O   UNL     1       0.041  50.922  64.527  0.00  0.00    -0.342 OA
ATOM      3  C   UNL     1      -0.715  51.484  65.597  0.00  0.00    +0.178 C 
ATOM      4  C   UNL     1      -2.041  50.655  65.690  0.00  0.00    +0.183 C 
ATOM      5  C   UNL     1      -2.868  50.796  64.322  0.00  0.00    +0.171 C 
ATOM      6  C   UNL     1      -1.952  50.309  63.169  0.00  0.00    +0.161 C 
ENDROOT
BRANCH   6   7
ATOM      7  N   UNL     1      -2.462  50.656  61.813  0.00  0.00    -0.305 N 
ATOM      8  H   UNL     1      -2.271  51.573  61.434  0.00  0.00    +0.150 HD
ATOM      9  C   UNL     1      -3.155  49.796  61.098  0.00  0.00    +0.209 C 
ATOM     10  O   UNL     1      -3.435  48.669  61.513  0.00  0.00    -0.278 OA
ATOM     11  C   UNL     1      -3.603  50.263  59.719  0.00  0.00    +0.111 C 
ENDBRANCH   6   7
BRANCH   5  12
ATOM     12  O   UNL     1      -3.258  52.152  64.103  0.00  0.00    -0.388 OA
ATOM     13  H   UNL     1      -2.545  52.738  64.370  0.00  0.00    +0.211 HD
ENDBRANCH   5  12
BRANCH   4  14
ATOM     14  O   UNL     1      -2.756  51.082  66.834  0.00  0.00    -0.342 OA
BRANCH  14  15
ATOM     15  C   UNL     1      -3.171  50.056  67.709  0.00  0.00    +0.274 C 
ATOM     16  O   UNL     1      -1.905  49.451  68.091  0.00  0.00    -0.342 OA
ATOM     17  C   UNL     1      -2.076  48.259  68.930  0.00  0.00    +0.178 C 
ATOM     18  C   UNL     1      -2.732  47.190  67.952  0.00  0.00    +0.176 C 
ATOM     19  C   UNL     1      -4.147  47.670  67.554  0.00  0.00    +0.171 C 
ATOM     20  C   UNL     1      -4.047  49.050  66.910  0.00  0.00    +0.161 C 
BRANCH  20  21
ATOM     21  N   UNL     1      -5.361  49.655  66.728  0.00  0.00    -0.305 N 
ATOM     22  H   UNL     1      -5.717  50.203  67.498  0.00  0.00    +0.150 HD
ATOM     23  C   UNL     1      -6.133  49.560  65.668  0.00  0.00    +0.209 C 
ATOM     24  O   UNL     1      -5.849  48.949  64.663  0.00  0.00    -0.278 OA
ATOM     25  C   UNL     1      -7.447  50.324  65.819  0.00  0.00    +0.111 C 
ENDBRANCH  20  21
BRANCH  19  26
ATOM     26  O   UNL     1      -4.977  47.761  68.698  0.00  0.00    -0.388 OA
ATOM     27  H   UNL     1      -5.895  47.642  68.438  0.00  0.00    +0.211 HD
ENDBRANCH  19  26
BRANCH  18  28
ATOM     28  O   UNL     1      -2.867  45.931  68.555  0.00  0.00    -0.388 OA
ATOM     29  H   UNL     1      -2.123  45.376  68.309  0.00  0.00    +0.211 HD
ENDBRANCH  18  28
BRANCH  17  30
ATOM     30  C   UNL     1      -0.673  47.828  69.480  0.00  0.00    +0.194 C 
BRANCH  30  31
ATOM     31  O   UNL     1      -0.093  46.712  68.758  0.00  0.00    -0.382 OA
ATOM     32  C   UNL     1       1.111  46.917  68.185  0.00  0.00    +0.195 C 
ENDBRANCH  30  31
ENDBRANCH  17  30
ENDBRANCH  14  15
ENDBRANCH   4  14
BRANCH   3  33
ATOM     33  C   UNL     1       0.150  51.379  66.847  0.00  0.00    +0.191 C 
BRANCH  33  34
ATOM     34  O   UNL     1      -0.419  52.263  67.854  0.00  0.00    -0.394 OA
ATOM     35  H   UNL     1       0.251  52.478  68.506  0.00  0.00    +0.210 HD
ENDBRANCH  33  34
ENDBRANCH   3  33
BRANCH   1  36
ATOM     36  O   UNL     1       0.262  50.427  62.283  0.00  0.00    -0.344 OA
BRANCH  36  37
ATOM     37  C   UNL     1       1.632  50.278  62.614  0.00  0.00    +0.160 C 
ATOM     38  C   UNL     1       2.398  50.345  61.295  0.00  0.00    +0.078 C 
ATOM     39  C   UNL     1       3.791  49.795  61.620  0.00  0.00    +0.164 C 
ATOM     40  O   UNL     1       4.310  48.915  60.594  0.00  0.00    -0.311 OA
ATOM     41  C   UNL     1       4.470  47.664  61.147  0.00  0.00    +0.229 C 
ATOM     42  N   UNL     1       4.846  46.601  60.395  0.00  0.00    -0.302 N 
ATOM     43  C   UNL     1       5.441  46.809  59.050  0.00  0.00    +0.133 C 
ATOM     44  C   UNL     1       4.993  45.238  60.959  0.00  0.00    +0.133 C 
ATOM     45  N   UNL     1       4.037  47.590  62.410  0.00  0.00    -0.240 NA
ATOM     46  C   UNL     1       3.576  48.872  62.837  0.00  0.00    +0.171 C 
ATOM     47  C   UNL     1       2.062  48.866  63.050  0.00  0.00    +0.171 C 
BRANCH  47  48
ATOM     48  O   UNL     1       1.837  48.652  64.444  0.00  0.00    -0.388 OA
ATOM     49  H   UNL     1       2.437  49.202  64.953  0.00  0.00    +0.211 HD
ENDBRANCH  47  48
BRANCH  38  50
ATOM     50  C   UNL     1       2.458  51.790  60.662  0.00  0.00    +0.165 C 
BRANCH  50  51
ATOM     51  O   UNL     1       3.725  51.980  59.979  0.00  0.00    -0.396 OA
ATOM     52  H   UNL     1       3.797  52.892  59.685  0.00  0.00    +0.210 HD
ENDBRANCH  50  51
ENDBRANCH  38  50
ENDBRANCH  36  37
ENDBRANCH   1  36
TORSDOF 16
ENDMDL
MODEL 8
REMARK VINA RESULT:      -7.6      4.010      6.347
REMARK  Name = 3fy1
REMARK  21 active torsions:
REMARK  status: ('A' for Active; 'I' for Inactive)
REMARK    1  A    between atoms: C1_1  and  O4_71
REMARK    2  A    between atoms: C2_2  and  N2_9
REMARK    3  A    between atoms: C3_3  and  O3_10
REMARK    4  A    between atoms: C4_4  and  O4_11
REMARK    5  A    between atoms: C5_5  and  C6_6
REMARK    6  A    between atoms: C6_6  and  O6_13
REMARK    7  A    between atoms: C7_7  and  C8_8
REMARK    8  A    between atoms: O4_11  and  C1_28
REMARK    9  A    between atoms: C2_29  and  N2_36
REMARK   10  A    between atoms: C3_30  and  O3_37
REMARK   11  A    between atoms: C4_31  and  O4_38
REMARK   12  A    between atoms: C5_32  and  C6_33
REMARK   13  A    between atoms: C6_33  and  O6_40
REMARK   14  A    between atoms: C7_34  and  C8_35
REMARK   15  A    between atoms: O6_40  and  C9_41
REMARK   16  A    between atoms: C3_61  and  O3_70
REMARK   17  A    between atoms: C4_62  and  O4_71
REMARK   18  A    between atoms: C5_63  and  C6_64
REMARK   19  A    between atoms: C6_64  and  O6_72
REMARK   20  A    between atoms: C8_66  and  N7_69
REMARK   21  A    between atoms: C9_67  and  N7_69
REMARK                            x       y       z     vdW  Elec       q    Type
REMARK                         _______ _______ _______ _____ _____    ______ ____
ROOT
ATOM      1  C   UNL     1      -2.788  49.922  68.161  0.00  0.00    +0.273 C 
ATOM      2  O   UNL     1      -3.468  50.115  66.914  0.00  0.00    -0.342 OA
ATOM      3  C   UNL     1      -2.852  51.064  66.046  0.00  0.00    +0.178 C 
ATOM      4  C   UNL     1      -1.447  50.479  65.672  0.00  0.00    +0.183 C 
ATOM      5  C   UNL     1      -0.557  50.312  66.998  0.00  0.00    +0.171 C 
ATOM      6  C   UNL     1      -1.336  49.390  67.972  0.00  0.00    +0.161 C 
ENDROOT
BRANCH   6   7
ATOM      7  N   UNL     1      -0.785  49.381  69.356  0.00  0.00    -0.305 N 
ATOM      8  H   UNL     1      -0.980  50.160  69.969  0.00  0.00    +0.150 HD
ATOM      9  C   UNL     1      -0.051  48.382  69.798  0.00  0.00    +0.209 C 
ATOM     10  O   UNL     1       0.236  47.413  69.091  0.00  0.00    -0.278 OA
ATOM     11  C   UNL     1       0.437  48.481  71.238  0.00  0.00    +0.111 C 
ENDBRANCH   6   7
BRANCH   5  12
ATOM     12  O   UNL     1      -0.314  51.580  67.608  0.00  0.00    -0.388 OA
ATOM     13  H   UNL     1      -1.086  52.142  67.498  0.00  0.00    +0.211 HD
ENDBRANCH   5  12
BRANCH   4  14
ATOM     14  O   UNL     1      -0.860  51.315  64.694  0.00  0.00    -0.342 OA
BRANCH  14  15
ATOM     15  C   UNL     1      -0.270  50.649  63.599  0.00  0.00    +0.274 C 
ATOM     16  O   UNL     1       0.807  49.909  64.237  0.00  0.00    -0.342 OA
ATOM     17  C   UNL     1       1.662  49.206  63.273  0.00  0.00    +0.178 C 
ATOM     18  C   UNL     1       2.408  50.375  62.495  0.00  0.00    +0.176 C 
ATOM     19  C   UNL     1       1.371  51.181  61.678  0.00  0.00    +0.171 C 
ATOM     20  C   UNL     1       0.295  51.715  62.619  0.00  0.00    +0.161 C 
BRANCH  20  21
ATOM     21  N   UNL     1      -0.830  52.281  61.883  0.00  0.00    -0.305 N 
ATOM     22  H   UNL     1      -1.561  51.639  61.613  0.00  0.00    +0.150 HD
ATOM     23  C   UNL     1      -0.992  53.538  61.534  0.00  0.00    +0.209 C 
ATOM     24  O   UNL     1      -0.213  54.428  61.790  0.00  0.00    -0.278 OA
ATOM     25  C   UNL     1      -2.293  53.780  60.771  0.00  0.00    +0.111 C 
ENDBRANCH  20  21
BRANCH  19  26
ATOM     26  O   UNL     1       0.757  50.354  60.706  0.00  0.00    -0.388 OA
ATOM     27  H   UNL     1       0.655  49.466  61.059  0.00  0.00    +0.211 HD
ENDBRANCH  19  26
BRANCH  18  28
ATOM     28  O   UNL     1       3.367  49.887  61.596  0.00  0.00    -0.388 OA
ATOM     29  H   UNL     1       2.973  49.795  60.725  0.00  0.00    +0.211 HD
ENDBRANCH  18  28
BRANCH  17  30
ATOM     30  C   UNL     1       2.630  48.257  64.059  0.00  0.00    +0.194 C 
BRANCH  30  31
ATOM     31  O   UNL     1       2.488  46.862  63.690  0.00  0.00    -0.382 OA
ATOM     32  C   UNL     1       3.527  46.293  63.045  0.00  0.00    +0.195 C 
ENDBRANCH  30  31
ENDBRANCH  17  30
ENDBRANCH  14  15
ENDBRANCH   4  14
BRANCH   3  33
ATOM     33  C   UNL     1      -3.775  51.224  64.845  0.00  0.00    +0.191 C 
BRANCH  33  34
ATOM     34  O   UNL     1      -3.237  52.289  64.013  0.00  0.00    -0.394 OA
ATOM     35  H   UNL     1      -2.305  52.408  64.209  0.00  0.00    +0.210 HD
ENDBRANCH  33  34
ENDBRANCH   3  33
BRANCH   1  36
ATOM     36  O   UNL     1      -3.489  48.952  68.907  0.00  0.00    -0.344 OA
BRANCH  36  37
ATOM     37  C   UNL     1      -3.907  47.780  68.230  0.00  0.00    +0.160 C 
ATOM     38  C   UNL     1      -5.412  47.668  68.461  0.00  0.00    +0.078 C 
ATOM     39  C   UNL     1      -5.764  46.227  68.075  0.00  0.00    +0.164 C 
ATOM     40  O   UNL     1      -6.703  45.606  68.986  0.00  0.00    -0.311 OA
ATOM     41  C   UNL     1      -6.073  44.536  69.581  0.00  0.00    +0.229 C 
ATOM     42  N   UNL     1      -6.671  43.818  70.563  0.00  0.00    -0.302 N 
ATOM     43  C   UNL     1      -8.137  43.926  70.780  0.00  0.00    +0.133 C 
ATOM     44  C   UNL     1      -6.003  42.683  71.241  0.00  0.00    +0.133 C 
ATOM     45  N   UNL     1      -4.788  44.421  69.228  0.00  0.00    -0.240 NA
ATOM     46  C   UNL     1      -4.457  45.434  68.278  0.00  0.00    +0.171 C 
ATOM     47  C   UNL     1      -3.483  46.449  68.877  0.00  0.00    +0.171 C 
BRANCH  47  48
ATOM     48  O   UNL     1      -2.171  46.058  68.470  0.00  0.00    -0.388 OA
ATOM     49  H   UNL     1      -2.043  46.281  67.545  0.00  0.00    +0.211 HD
ENDBRANCH  47  48
BRANCH  38  50
ATOM     50  C   UNL     1      -6.264  48.728  67.659  0.00  0.00    +0.165 C 
BRANCH  50  51
ATOM     51  O   UNL     1      -5.990  48.612  66.238  0.00  0.00    -0.396 OA
ATOM     52  H   UNL     1      -6.749  48.925  65.739  0.00  0.00    +0.210 HD
ENDBRANCH  50  51
ENDBRANCH  38  50
ENDBRANCH  36  37
ENDBRANCH   1  36
TORSDOF 16
ENDMDL
MODEL 9
REMARK VINA RESULT:      -7.6      4.011      6.672
REMARK  Name = 3fy1
REMARK  21 active torsions:
REMARK  status: ('A' for Active; 'I' for Inactive)
REMARK    1  A    between atoms: C1_1  and  O4_71
REMARK    2  A    between atoms: C2_2  and  N2_9
REMARK    3  A    between atoms: C3_3  and  O3_10
REMARK    4  A    between atoms: C4_4  and  O4_11
REMARK    5  A    between atoms: C5_5  and  C6_6
REMARK    6  A    between atoms: C6_6  and  O6_13
REMARK    7  A    between atoms: C7_7  and  C8_8
REMARK    8  A    between atoms: O4_11  and  C1_28
REMARK    9  A    between atoms: C2_29  and  N2_36
REMARK   10  A    between atoms: C3_30  and  O3_37
REMARK   11  A    between atoms: C4_31  and  O4_38
REMARK   12  A    between atoms: C5_32  and  C6_33
REMARK   13  A    between atoms: C6_33  and  O6_40
REMARK   14  A    between atoms: C7_34  and  C8_35
REMARK   15  A    between atoms: O6_40  and  C9_41
REMARK   16  A    between atoms: C3_61  and  O3_70
REMARK   17  A    between atoms: C4_62  and  O4_71
REMARK   18  A    between atoms: C5_63  and  C6_64
REMARK   19  A    between atoms: C6_64  and  O6_72
REMARK   20  A    between atoms: C8_66  and  N7_69
REMARK   21  A    between atoms: C9_67  and  N7_69
REMARK                            x       y       z     vdW  Elec       q    Type
REMARK                         _______ _______ _______ _____ _____    ______ ____
ROOT
ATOM      1  C   UNL     1      -1.655  48.533  66.625  0.00  0.00    +0.273 C 
ATOM      2  O   UNL     1      -2.105  48.836  65.298  0.00  0.00    -0.342 OA
ATOM      3  C   UNL     1      -1.479  49.972  64.707  0.00  0.00    +0.178 C 
ATOM      4  C   UNL     1       0.042  49.620  64.566  0.00  0.00    +0.183 C 
ATOM      5  C   UNL     1       0.676  49.355  66.016  0.00  0.00    +0.171 C 
ATOM      6  C   UNL     1      -0.132  48.209  66.678  0.00  0.00    +0.161 C 
ENDROOT
BRANCH   6   7
ATOM      7  N   UNL     1       0.139  48.050  68.134  0.00  0.00    -0.305 N 
ATOM      8  H   UNL     1      -0.376  48.614  68.796  0.00  0.00    +0.150 HD
ATOM      9  C   UNL     1       1.035  47.194  68.578  0.00  0.00    +0.209 C 
ATOM     10  O   UNL     1       1.707  46.492  67.819  0.00  0.00    -0.278 OA
ATOM     11  C   UNL     1       1.205  47.110  70.090  0.00  0.00    +0.111 C 
ENDBRANCH   6   7
BRANCH   5  12
ATOM     12  O   UNL     1       0.611  50.533  66.820  0.00  0.00    -0.388 OA
ATOM     13  H   UNL     1       0.956  51.279  66.324  0.00  0.00    +0.211 HD
ENDBRANCH   5  12
BRANCH   4  14
ATOM     14  O   UNL     1       0.677  50.660  63.847  0.00  0.00    -0.342 OA
BRANCH  14  15
ATOM     15  C   UNL     1       1.174  50.305  62.575  0.00  0.00    +0.274 C 
ATOM     16  O   UNL     1       2.429  49.649  62.911  0.00  0.00    -0.342 OA
ATOM     17  C   UNL     1       3.210  49.279  61.726  0.00  0.00    +0.178 C 
ATOM     18  C   UNL     1       3.660  50.674  61.109  0.00  0.00    +0.176 C 
ATOM     19  C   UNL     1       2.410  51.433  60.608  0.00  0.00    +0.171 C 
ATOM     20  C   UNL     1       1.430  51.607  61.765  0.00  0.00    +0.161 C 
BRANCH  20  21
ATOM     21  N   UNL     1       0.139  52.104  61.306  0.00  0.00    -0.305 N 
ATOM     22  H   UNL     1      -0.315  51.574  60.576  0.00  0.00    +0.150 HD
ATOM     23  C   UNL     1      -0.497  53.169  61.741  0.00  0.00    +0.209 C 
ATOM     24  O   UNL     1      -0.092  53.902  62.616  0.00  0.00    -0.278 OA
ATOM     25  C   UNL     1      -1.833  53.394  61.037  0.00  0.00    +0.111 C 
ENDBRANCH  20  21
BRANCH  19  26
ATOM     26  O   UNL     1       1.770  50.704  59.576  0.00  0.00    -0.388 OA
ATOM     27  H   UNL     1       1.875  51.169  58.743  0.00  0.00    +0.211 HD
ENDBRANCH  19  26
BRANCH  18  28
ATOM     28  O   UNL     1       4.526  50.518  60.017  0.00  0.00    -0.388 OA
ATOM     29  H   UNL     1       4.994  51.340  59.859  0.00  0.00    +0.211 HD
ENDBRANCH  18  28
BRANCH  17  30
ATOM     30  C   UNL     1       4.408  48.376  62.177  0.00  0.00    +0.194 C 
BRANCH  30  31
ATOM     31  O   UNL     1       4.140  46.957  62.037  0.00  0.00    -0.382 OA
ATOM     32  C   UNL     1       3.580  46.335  63.094  0.00  0.00    +0.195 C 
ENDBRANCH  30  31
ENDBRANCH  17  30
ENDBRANCH  14  15
ENDBRANCH   4  14
BRANCH   3  33
ATOM     33  C   UNL     1      -2.169  50.208  63.369  0.00  0.00    +0.191 C 
BRANCH  33  34
ATOM     34  O   UNL     1      -2.634  48.920  62.879  0.00  0.00    -0.394 OA
ATOM     35  H   UNL     1      -2.751  48.319  63.619  0.00  0.00    +0.210 HD
ENDBRANCH  33  34
ENDBRANCH   3  33
BRANCH   1  36
ATOM     36  O   UNL     1      -2.337  47.384  67.077  0.00  0.00    -0.344 OA
BRANCH  36  37
ATOM     37  C   UNL     1      -3.513  47.578  67.842  0.00  0.00    +0.160 C 
ATOM     38  C   UNL     1      -4.001  46.186  68.236  0.00  0.00    +0.078 C 
ATOM     39  C   UNL     1      -5.446  46.392  68.703  0.00  0.00    +0.164 C 
ATOM     40  O   UNL     1      -6.349  45.360  68.235  0.00  0.00    -0.311 OA
ATOM     41  C   UNL     1      -7.283  45.952  67.416  0.00  0.00    +0.229 C 
ATOM     42  N   UNL     1      -8.203  45.217  66.746  0.00  0.00    -0.302 N 
ATOM     43  C   UNL     1      -8.468  43.809  67.140  0.00  0.00    +0.133 C 
ATOM     44  C   UNL     1      -9.199  45.826  65.833  0.00  0.00    +0.133 C 
ATOM     45  N   UNL     1      -7.057  47.255  67.218  0.00  0.00    -0.240 NA
ATOM     46  C   UNL     1      -5.917  47.667  67.974  0.00  0.00    +0.171 C 
ATOM     47  C   UNL     1      -4.754  48.034  67.053  0.00  0.00    +0.171 C 
BRANCH  47  48
ATOM     48  O   UNL     1      -4.784  49.452  66.888  0.00  0.00    -0.388 OA
ATOM     49  H   UNL     1      -3.915  49.762  66.625  0.00  0.00    +0.211 HD
ENDBRANCH  47  48
BRANCH  38  50
ATOM     50  C   UNL     1      -3.111  45.483  69.334  0.00  0.00    +0.165 C 
BRANCH  50  51
ATOM     51  O   UNL     1      -2.206  46.447  69.932  0.00  0.00    -0.396 OA
ATOM     52  H   UNL     1      -2.207  46.338  70.886  0.00  0.00    +0.210 HD
ENDBRANCH  50  51
ENDBRANCH  38  50
ENDBRANCH  36  37
ENDBRANCH   1  36
TORSDOF 16
ENDMDL
