REMARK  Name = 3fy1
REMARK  21 active torsions:
REMARK  status: ('A' for Active; 'I' for Inactive)
REMARK    1  A    between atoms: C_1  and  O_30
REMARK    2  A    between atoms: C_2  and  N_26
REMARK    3  A    between atoms: C_3  and  O_25
REMARK    4  A    between atoms: C_4  and  O_9
REMARK    5  A    between atoms: C_5  and  C_6
REMARK    6  A    between atoms: C_6  and  O_7
REMARK    7  A    between atoms: O_9  and  C_10
REMARK    8  A    between atoms: C_11  and  N_21
REMARK    9  A    between atoms: C_12  and  O_20
REMARK   10  A    between atoms: C_13  and  O_19
REMARK   11  A    between atoms: C_14  and  C_15
REMARK   12  A    between atoms: C_15  and  O_16
REMARK   13  A    between atoms: O_16  and  C_17
REMARK   14  A    between atoms: C_22  and  C_24
REMARK   15  A    between atoms: C_27  and  C_29
REMARK   16  A    between atoms: O_30  and  C_31
REMARK   17  A    between atoms: C_32  and  O_44
REMARK   18  A    between atoms: C_35  and  C_36
REMARK   19  A    between atoms: C_36  and  O_37
REMARK   20  A    between atoms: N_41  and  C_42
REMARK   21  A    between atoms: N_41  and  C_43
REMARK                            x       y       z     vdW  Elec       q    Type
REMARK                         _______ _______ _______ _____ _____    ______ ____
ROOT
ATOM      1  C   UNL     1       0.703   1.247  -0.255  0.00  0.00    +0.274 C 
ATOM      2  O   UNL     1       1.446  -0.001   0.233  0.00  0.00    -0.341 OA
ATOM      3  C   UNL     1       0.702  -1.248  -0.255  0.00  0.00    +0.178 C 
ATOM      4  C   UNL     1      -0.743  -1.199   0.247  0.00  0.00    +0.183 C 
ATOM      5  C   UNL     1      -1.367   0.000  -0.216  0.00  0.00    +0.171 C 
ATOM      6  C   UNL     1      -0.742   1.199   0.247  0.00  0.00    +0.160 C 
ENDROOT
BRANCH   6   7
ATOM      7  N   UNL     1      -1.478   2.364  -0.265  0.00  0.00    -0.305 N 
ATOM      8  H   UNL     1      -2.270   2.235  -0.834  0.00  0.00    +0.149 HD
ATOM      9  C   UNL     1      -1.030   3.723   0.074  0.00  0.00    +0.210 C 
ATOM     10  C   UNL     1      -1.790   4.928  -0.456  0.00  0.00    +0.109 C 
ATOM     11  O   UNL     1      -0.006   3.890   0.809  0.00  0.00    -0.276 OA
ENDBRANCH   6   7
BRANCH   5  12
ATOM     12  O   UNL     1      -2.716   0.000   0.227  0.00  0.00    -0.387 OA
ATOM     13  H   UNL     1      -2.738   0.001   1.197  0.00  0.00    +0.210 HD
ENDBRANCH   5  12
BRANCH   4  14
ATOM     14  O   UNL     1      -0.752  -1.220   1.667  0.00  0.00    -0.341 OA
BRANCH  14  15
ATOM     15  C   UNL     1      -2.093  -1.174   2.132  0.00  0.00    +0.274 C 
ATOM     16  O   UNL     1      -2.030   0.270   1.622  0.00  0.00    -0.341 OA
ATOM     17  C   UNL     1      -1.127   1.089   2.550  0.00  0.00    +0.178 C 
ATOM     18  C   UNL     1      -1.666   1.001   3.980  0.00  0.00    +0.176 C 
ATOM     19  C   UNL     1      -1.728  -0.369   4.382  0.00  0.00    +0.171 C 
ATOM     20  C   UNL     1      -2.594  -1.173   3.579  0.00  0.00    +0.160 C 
BRANCH  20  21
ATOM     21  N   UNL     1      -2.602  -2.550   4.094  0.00  0.00    -0.305 N 
ATOM     22  H   UNL     1      -2.059  -2.784   4.881  0.00  0.00    +0.149 HD
ATOM     23  C   UNL     1      -3.422  -3.577   3.435  0.00  0.00    +0.210 C 
ATOM     24  C   UNL     1      -3.431  -5.000   3.969  0.00  0.00    +0.109 C 
ATOM     25  O   UNL     1      -4.123  -3.275   2.419  0.00  0.00    -0.276 OA
ENDBRANCH  20  21
BRANCH  19  26
ATOM     26  O   UNL     1      -2.190  -0.420   5.724  0.00  0.00    -0.387 OA
ATOM     27  H   UNL     1      -3.084  -0.047   5.772  0.00  0.00    +0.210 HD
ENDBRANCH  19  26
BRANCH  18  28
ATOM     28  O   UNL     1      -2.966   1.569   4.032  0.00  0.00    -0.387 OA
ATOM     29  H   UNL     1      -3.556   1.083   3.434  0.00  0.00    +0.210 HD
ENDBRANCH  18  28
BRANCH  17  30
ATOM     30  C   UNL     1      -1.117   2.540   2.099  0.00  0.00    +0.193 C 
BRANCH  30  31
ATOM     31  O   UNL     1      -0.285   3.299   2.965  0.00  0.00    -0.380 OA
ATOM     32  C   UNL     1       1.036   2.781   2.925  0.00  0.00    +0.194 C 
ENDBRANCH  30  31
ENDBRANCH  17  30
ENDBRANCH  14  15
ENDBRANCH   4  14
BRANCH   3  33
ATOM     33  C   UNL     1       1.386  -2.493   0.286  0.00  0.00    +0.190 C 
BRANCH  33  34
ATOM     34  O   UNL     1       2.727  -2.537  -0.181  0.00  0.00    -0.392 OA
ATOM     35  H   UNL     1       2.731  -2.561  -1.151  0.00  0.00    +0.210 HD
ENDBRANCH  33  34
ENDBRANCH   3  33
BRANCH   1  36
ATOM     36  O   UNL     1       0.712   1.281  -1.675  0.00  0.00    -0.343 OA
BRANCH  36  37
ATOM     37  C   UNL     1       2.053   1.325  -2.138  0.00  0.00    +0.161 C 
ATOM     38  C   UNL     1       2.833   2.485  -1.485  0.00  0.00    +0.090 C 
ATOM     39  C   UNL     1       3.475   1.892  -0.299  0.00  0.00    +0.223 C 
ATOM     40  O   UNL     1       4.063   2.242   0.867  0.00  0.00    -0.427 OA
ATOM     41  C   UNL     1       4.466   1.001   1.537  0.00  0.00    +0.165 C 
ATOM     42  N   UNL     1        -nan    -nan    -nan  0.00  0.00    -0.309 N 
ATOM     43  C   UNL     1        -nan    -nan    -nan  0.00  0.00    +0.156 C 
ATOM     44  C   UNL     1        -nan    -nan    -nan  0.00  0.00    +0.156 C 
ATOM     45  N   UNL     1       4.087  -0.039   0.712  0.00  0.00    -0.194 NA
ATOM     46  C   UNL     1       3.488   0.498  -0.408  0.00  0.00    +0.192 C 
ATOM     47  C   UNL     1       2.848   0.088  -1.671  0.00  0.00    +0.173 C 
BRANCH  47  48
ATOM     48  O   UNL     1       3.828  -0.267  -2.635  0.00  0.00    -0.387 OA
ATOM     49  H   UNL     1       4.424   0.484  -2.783  0.00  0.00    +0.210 HD
ENDBRANCH  47  48
BRANCH  38  50
ATOM     50  C   UNL     1       1.886   3.603  -1.078  0.00  0.00    +0.165 C 
BRANCH  50  51
ATOM     51  O   UNL     1       1.282   4.157  -2.237  0.00  0.00    -0.395 OA
ATOM     52  H   UNL     1       1.969   4.513  -2.822  0.00  0.00    +0.209 HD
ENDBRANCH  50  51
ENDBRANCH  38  50
ENDBRANCH  36  37
ENDBRANCH   1  36
TORSDOF 16
